Multicore SMT processors detected. Processor affinity set!

       Clearing partially read grid.

Reading from ALI-DESKTOP:"D:/HPC Workshop/Ansys Cases/parametric_mixer/parametric_ansys_project/Static_Mixer.cffdb\Static_Mixer-Solve\BaseCases\Static_Mixer.cas.h5" in NODE0 mode ...
  Reading mesh ...
       22771 cells,     1 cell zone  ...
          22771 polyhedra cells,  zone id: 97
      119140 faces,     5 face zones ...
         114959 polygonal interior faces,  zone id: 96
           3873 polygonal wall faces,  zone id: 20
            104 polygonal pressure-outlet faces,  zone id: 19
            103 polygonal velocity-inlet faces,  zone id: 18
            101 polygonal velocity-inlet faces,  zone id: 17
       82247 nodes,     1 node zone  ...
  Done.


Building...
     mesh
	distributing mesh
		parts....,
		faces....,
		nodes....,
		cells....,
        bandwidth reduction using Reverse Cuthill-McKee: 5673/485 = 11.6969
     materials,
     interface,
     domains,
	mixture
     zones,
	interior--fluid
	wall
	outlet
	inlet2
	inlet1
	fluid
     parallel,
Done.

Applying input parameter values ...


  iter  continuity  x-velocity  y-velocity  z-velocity      energy           k     epsilon  outlet-tem     time/iter

 Reversed flow on 11 faces (20.3% area) of pressure-outlet 19.
     1  1.0000e+00  1.8284e-03  8.3747e-03  6.9455e-04  9.1809e-04  1.8349e-01  7.3008e+01  3.0000e+02  0:05:49  349

 Reversed flow on 5 faces (2.6% area) of pressure-outlet 19.
     2  8.7943e-01  8.7679e-03  5.5797e-02  1.1722e-02  9.8327e-04  1.2610e-01  4.3131e-01  3.0007e+02  0:05:48  348

 Reversed flow on 1 face (0.5% area) of pressure-outlet 19.
     3  6.3670e-01  6.0166e-03  3.3723e-02  7.3522e-03  1.0782e-03  9.5140e-02  4.1844e-01  3.0058e+02  0:05:47  347
     4  5.4208e-01  3.6095e-03  1.7402e-02  4.4208e-03  1.0729e-03  9.1222e-02  8.7698e-01  3.0224e+02  0:04:37  346
     5  4.7803e-01  2.7916e-03  9.7478e-03  2.5556e-03  8.9193e-04  6.8310e-02  1.3489e+00  3.0413e+02  0:04:50  345
     6  3.7880e-01  2.2370e-03  5.6860e-03  1.8115e-03  7.1708e-04  5.0091e-02  1.3675e+00  3.0570e+02  0:03:51  344
     7  2.8542e-01  1.8851e-03  3.6628e-03  1.4505e-03  5.9492e-04  3.5369e-02  1.0613e+00  3.0731e+02  0:04:13  343
     8  2.0547e-01  1.6140e-03  2.6191e-03  1.1872e-03  5.1081e-04  2.4534e-02  7.4924e-01  3.0882e+02  0:03:22  342
     9  1.4612e-01  1.4127e-03  2.0659e-03  9.8032e-04  4.4590e-04  1.7032e-02  5.0610e-01  3.1028e+02  0:03:49  341
    10  1.0620e-01  1.2580e-03  1.7478e-03  8.0613e-04  3.9880e-04  1.1709e-02  3.3251e-01  3.1159e+02  0:03:03  340
    11  8.5141e-02  1.1471e-03  1.5496e-03  7.0879e-04  3.5333e-04  7.9322e-03  2.0957e-01  3.1284e+02  0:03:34  339

  iter  continuity  x-velocity  y-velocity  z-velocity      energy           k     epsilon  outlet-tem     time/iter
    12  7.4712e-02  1.0642e-03  1.4203e-03  6.1436e-04  3.1301e-04  5.5372e-03  1.2492e-01  3.1396e+02  0:02:50  338
    13  6.7712e-02  1.0093e-03  1.3253e-03  5.6230e-04  2.7954e-04  4.2821e-03  6.9912e-02  3.1497e+02  0:03:23  337
    14  6.1524e-02  9.7250e-04  1.2524e-03  5.1292e-04  2.5232e-04  3.7546e-03  4.3662e-02  3.1585e+02  0:02:42  336
    15  5.6596e-02  9.4379e-04  1.1910e-03  4.8350e-04  2.2929e-04  3.6053e-03  3.6317e-02  3.1661e+02  0:02:09  335
    16  5.2810e-02  9.1802e-04  1.1357e-03  4.5876e-04  2.1077e-04  3.5871e-03  3.9069e-02  3.1729e+02  0:02:50  334
    17  5.0271e-02  8.9111e-04  1.0840e-03  4.4154e-04  1.9460e-04  3.5469e-03  4.1895e-02  3.1790e+02  0:02:16  333
    18  4.8691e-02  8.6409e-04  1.0343e-03  4.2750e-04  1.7978e-04  3.4381e-03  4.2444e-02  3.1843e+02  0:01:48  332
    19  4.7645e-02  8.3727e-04  9.8696e-04  4.1248e-04  1.6656e-04  3.2687e-03  4.0909e-02  3.1892e+02  0:02:32  331
    20  4.6695e-02  8.0718e-04  9.3911e-04  3.9673e-04  1.5474e-04  3.0743e-03  3.8167e-02  3.1938e+02  0:02:02  330
    21  4.5669e-02  7.7604e-04  8.9193e-04  3.8017e-04  1.4409e-04  2.9038e-03  3.5215e-02  3.1979e+02  0:02:43  329
    22  4.4634e-02  7.4391e-04  8.4654e-04  3.6363e-04  1.3406e-04  2.7390e-03  3.2561e-02  3.2016e+02  0:02:10  328

  iter  continuity  x-velocity  y-velocity  z-velocity      energy           k     epsilon  outlet-tem     time/iter
    23  4.3449e-02  7.1139e-04  8.0146e-04  3.4537e-04  1.2501e-04  2.5778e-03  3.0343e-02  3.2050e+02  0:01:44  327
    24  4.2249e-02  6.7917e-04  7.5819e-04  3.2676e-04  1.1666e-04  2.4223e-03  2.8343e-02  3.2082e+02  0:02:28  326
    25  4.0885e-02  6.4623e-04  7.1577e-04  3.0817e-04  1.0874e-04  2.2633e-03  2.6345e-02  3.2111e+02  0:01:58  325
    26  3.9396e-02  6.1368e-04  6.7492e-04  2.8950e-04  1.0132e-04  2.1138e-03  2.4374e-02  3.2139e+02  0:02:39  324
    27  3.7864e-02  5.8140e-04  6.3579e-04  2.7246e-04  9.4026e-05  1.9734e-03  2.2383e-02  3.2164e+02  0:02:07  323
    28  3.6150e-02  5.5011e-04  5.9907e-04  2.5553e-04  8.6942e-05  1.8406e-03  2.0429e-02  3.2187e+02  0:01:41  322
    29  3.4502e-02  5.1987e-04  5.6410e-04  2.3928e-04  8.0447e-05  1.7253e-03  1.8689e-02  3.2209e+02  0:02:25  321
    30  3.2814e-02  4.9050e-04  5.3094e-04  2.2526e-04  7.4120e-05  1.6144e-03  1.7125e-02  3.2230e+02  0:01:55  320
    31  3.1174e-02  4.6324e-04  5.0001e-04  2.1031e-04  6.8409e-05  1.5249e-03  1.5830e-02  3.2248e+02  0:01:32  319
    32  2.9569e-02  4.3684e-04  4.7100e-04  1.9834e-04  6.2852e-05  1.4361e-03  1.4710e-02  3.2266e+02  0:02:17  318
    33  2.8047e-02  4.1333e-04  4.4446e-04  1.8574e-04  5.7934e-05  1.3523e-03  1.3724e-02  3.2282e+02  0:01:49  317

  iter  continuity  x-velocity  y-velocity  z-velocity      energy           k     epsilon  outlet-tem     time/iter
    34  2.6683e-02  3.9060e-04  4.1919e-04  1.7542e-04  5.3375e-05  1.2708e-03  1.2801e-02  3.2297e+02  0:02:30  316
    35  2.5412e-02  3.7004e-04  3.9601e-04  1.6497e-04  4.9230e-05  1.1962e-03  1.1975e-02  3.2311e+02  0:02:00  315
    36  2.4256e-02  3.5055e-04  3.7467e-04  1.5626e-04  4.5681e-05  1.1313e-03  1.1257e-02  3.2324e+02  0:01:36  314
    37  2.3204e-02  3.3313e-04  3.5547e-04  1.4789e-04  4.2639e-05  1.0731e-03  1.0636e-02  3.2336e+02  0:02:19  313
    38  2.2261e-02  3.1628e-04  3.3758e-04  1.4057e-04  4.0043e-05  1.0250e-03  1.0126e-02  3.2347e+02  0:01:51  312
    39  2.1391e-02  3.0065e-04  3.2115e-04  1.3369e-04  3.7820e-05  9.8803e-04  9.7677e-03  3.2358e+02  0:02:30  311
    40  2.0605e-02  2.8598e-04  3.0586e-04  1.2727e-04  3.5878e-05  9.6538e-04  9.5444e-03  3.2368e+02  0:02:00  310
    41  1.9850e-02  2.7194e-04  2.9173e-04  1.2154e-04  3.4217e-05  9.4814e-04  9.4093e-03  3.2377e+02  0:01:36  309
    42  1.9117e-02  2.5881e-04  2.7871e-04  1.1554e-04  3.2826e-05  9.3909e-04  9.3379e-03  3.2385e+02  0:02:18  308
    43  1.8428e-02  2.4594e-04  2.6630e-04  1.1046e-04  3.1600e-05  9.3062e-04  9.3046e-03  3.2393e+02  0:01:50  307
    44  1.7765e-02  2.3391e-04  2.5456e-04  1.0530e-04  3.0451e-05  9.2100e-04  9.2813e-03  3.2401e+02  0:01:28  306

  iter  continuity  x-velocity  y-velocity  z-velocity      energy           k     epsilon  outlet-tem     time/iter
    45  1.7135e-02  2.2266e-04  2.4334e-04  9.9934e-05  2.9347e-05  9.1403e-04  9.2685e-03  3.2408e+02  0:02:11  305
    46  1.6506e-02  2.1170e-04  2.3252e-04  9.5162e-05  2.8284e-05  9.0692e-04  9.3230e-03  3.2414e+02  0:01:44  304
    47  1.5905e-02  2.0152e-04  2.2239e-04  9.0464e-05  2.7288e-05  8.9810e-04  9.3787e-03  3.2420e+02  0:02:24  303
    48  1.5321e-02  1.9153e-04  2.1248e-04  8.6563e-05  2.6285e-05  8.8691e-04  9.4098e-03  3.2426e+02  0:01:55  302
    49  1.4779e-02  1.8262e-04  2.0344e-04  8.2594e-05  2.5268e-05  8.7027e-04  9.3648e-03  3.2431e+02  0:02:32  301
    50  1.4243e-02  1.7386e-04  1.9451e-04  7.9187e-05  2.4225e-05  8.4983e-04  9.2829e-03  3.2436e+02  0:02:01  300
    51  1.3732e-02  1.6610e-04  1.8642e-04  7.5323e-05  2.3214e-05  8.2483e-04  9.1097e-03  3.2440e+02  0:01:36  299
    52  1.3239e-02  1.5863e-04  1.7855e-04  7.1958e-05  2.2246e-05  7.9863e-04  8.9024e-03  3.2445e+02  0:02:16  298
    53  1.2760e-02  1.5219e-04  1.7160e-04  6.8418e-05  2.1337e-05  7.7186e-04  8.6502e-03  3.2448e+02  0:01:49  297
    54  1.2304e-02  1.4609e-04  1.6486e-04  6.5432e-05  2.0489e-05  7.4447e-04  8.3788e-03  3.2452e+02  0:02:26  296
    55  1.1880e-02  1.4077e-04  1.5886e-04  6.2527e-05  1.9752e-05  7.2047e-04  8.0930e-03  3.2455e+02  0:01:56  295

  iter  continuity  x-velocity  y-velocity  z-velocity      energy           k     epsilon  outlet-tem     time/iter
    56  1.1500e-02  1.3565e-04  1.5310e-04  6.0011e-05  1.9113e-05  6.9705e-04  7.8130e-03  3.2458e+02  0:01:33  294
    57  1.1161e-02  1.3125e-04  1.4809e-04  5.7600e-05  1.8596e-05  6.7619e-04  7.5189e-03  3.2461e+02  0:02:13  293
    58  1.0872e-02  1.2710e-04  1.4334e-04  5.5526e-05  1.8187e-05  6.5590e-04  7.2309e-03  3.2464e+02  0:01:46  292
    59  1.0645e-02  1.2353e-04  1.3912e-04  5.3779e-05  1.7889e-05  6.3734e-04  6.9539e-03  3.2466e+02  0:01:24  291
    60  1.0429e-02  1.2016e-04  1.3516e-04  5.2476e-05  1.7708e-05  6.2043e-04  6.6974e-03  3.2468e+02  0:02:05  290
    61  1.0217e-02  1.1722e-04  1.3166e-04  5.1480e-05  1.7635e-05  6.0743e-04  6.4668e-03  3.2470e+02  0:01:40  289
    62  1.0048e-02  1.1440e-04  1.2847e-04  5.0908e-05  1.7602e-05  5.9779e-04  6.2742e-03  3.2472e+02  0:02:17  288
    63  9.8981e-03  1.1202e-04  1.2570e-04  5.0411e-05  1.7371e-05  5.9092e-04  6.1185e-03  3.2474e+02  0:01:49  287
    64  9.7656e-03  1.0965e-04  1.2296e-04  5.0134e-05  1.7473e-05  5.8598e-04  6.0033e-03  3.2475e+02  0:01:27  286
    65  9.6423e-03  1.0750e-04  1.2057e-04  5.0050e-05  1.7352e-05  5.8135e-04  5.9147e-03  3.2477e+02  0:02:06  285
    66  9.5183e-03  1.0557e-04  1.1848e-04  4.9937e-05  1.7262e-05  5.7831e-04  5.8467e-03  3.2478e+02  0:01:41  284

  iter  continuity  x-velocity  y-velocity  z-velocity      energy           k     epsilon  outlet-tem     time/iter
    67  9.4217e-03  1.0365e-04  1.1649e-04  4.9932e-05  1.7192e-05  5.7598e-04  5.7959e-03  3.2480e+02  0:01:20  283
    68  9.3146e-03  1.0179e-04  1.1453e-04  4.9941e-05  1.7123e-05  5.7383e-04  5.7560e-03  3.2481e+02  0:02:00  282
    69  9.2020e-03  1.0003e-04  1.1265e-04  4.9882e-05  1.7048e-05  5.7099e-04  5.7280e-03  3.2482e+02  0:01:36  281
    70  9.1002e-03  9.8388e-05  1.1084e-04  4.9757e-05  1.6972e-05  5.6694e-04  5.7025e-03  3.2483e+02  0:02:13  280
    71  9.0026e-03  9.6737e-05  1.0904e-04  4.9565e-05  1.6887e-05  5.6267e-04  5.6759e-03  3.2484e+02  0:01:46  279
    72  8.8704e-03  9.5229e-05  1.0733e-04  4.9188e-05  1.6781e-05  5.5815e-04  5.6495e-03  3.2485e+02  0:01:24  278
    73  8.7217e-03  9.3638e-05  1.0556e-04  4.8845e-05  1.6646e-05  5.5249e-04  5.6204e-03  3.2486e+02  0:02:03  277
    74  8.5729e-03  9.2119e-05  1.0380e-04  4.8334e-05  1.6486e-05  5.4530e-04  5.5890e-03  3.2486e+02  0:01:38  276
    75  8.4452e-03  9.0622e-05  1.0210e-04  4.7726e-05  1.6298e-05  5.3694e-04  5.5506e-03  3.2487e+02  0:02:13  275
    76  8.3018e-03  8.9182e-05  1.0036e-04  4.7045e-05  1.6067e-05  5.2822e-04  5.5147e-03  3.2488e+02  0:01:46  274
    77  8.1480e-03  8.7727e-05  9.8649e-05  4.6378e-05  1.5812e-05  5.1954e-04  5.4756e-03  3.2488e+02  0:01:24  273

  iter  continuity  x-velocity  y-velocity  z-velocity      energy           k     epsilon  outlet-tem     time/iter
    78  8.0053e-03  8.6343e-05  9.6982e-05  4.5536e-05  1.5543e-05  5.1151e-04  5.4353e-03  3.2489e+02  0:02:02  272
    79  7.8592e-03  8.4905e-05  9.5286e-05  4.4709e-05  1.5258e-05  5.0292e-04  5.3917e-03  3.2489e+02  0:01:37  271
    80  7.7079e-03  8.3592e-05  9.3690e-05  4.3693e-05  1.4952e-05  4.9467e-04  5.3472e-03  3.2490e+02  0:01:17  270
    81  7.5521e-03  8.2191e-05  9.1997e-05  4.2755e-05  1.4641e-05  4.8549e-04  5.2919e-03  3.2490e+02  0:01:55  269
    82  7.4021e-03  8.0840e-05  9.0365e-05  4.1759e-05  1.4312e-05  4.7607e-04  5.2225e-03  3.2491e+02  0:01:32  268
    83  7.2562e-03  7.9548e-05  8.8785e-05  4.0730e-05  1.3968e-05  4.6654e-04  5.1497e-03  3.2491e+02  0:02:07  267
    84  7.1088e-03  7.8287e-05  8.7231e-05  3.9716e-05  1.3613e-05  4.5675e-04  5.0700e-03  3.2491e+02  0:01:41  266
    85  6.9698e-03  7.7094e-05  8.5740e-05  3.8591e-05  1.3259e-05  4.4772e-04  4.9895e-03  3.2492e+02  0:01:20  265
    86  6.8350e-03  7.5843e-05  8.4220e-05  3.7603e-05  1.2918e-05  4.3865e-04  4.9077e-03  3.2492e+02  0:01:57  264
    87  6.7057e-03  7.4655e-05  8.2782e-05  3.6644e-05  1.2584e-05  4.2974e-04  4.8229e-03  3.2492e+02  0:01:33  263
    88  6.5904e-03  7.3493e-05  8.1395e-05  3.5693e-05  1.2261e-05  4.2071e-04  4.7352e-03  3.2493e+02  0:01:14  262

  iter  continuity  x-velocity  y-velocity  z-velocity      energy           k     epsilon  outlet-tem     time/iter
    89  6.4787e-03  7.2386e-05  8.0031e-05  3.4753e-05  1.1940e-05  4.1102e-04  4.6436e-03  3.2493e+02  0:01:51  261
    90  6.3675e-03  7.1330e-05  7.8746e-05  3.3762e-05  1.1640e-05  4.0230e-04  4.5610e-03  3.2493e+02  0:01:29  260
    91  6.2609e-03  7.0151e-05  7.7378e-05  3.3047e-05  1.1329e-05  3.9308e-04  4.4731e-03  3.2494e+02  0:02:03  259
    92  6.1645e-03  6.9191e-05  7.6235e-05  3.2010e-05  1.1024e-05  3.8507e-04  4.3899e-03  3.2494e+02  0:01:38  258
    93  6.0669e-03  6.8101e-05  7.4978e-05  3.1194e-05  1.0724e-05  3.7717e-04  4.3119e-03  3.2494e+02  0:02:09  257
    94  5.9613e-03  6.7076e-05  7.3810e-05  3.0473e-05  1.0426e-05  3.6963e-04  4.2321e-03  3.2495e+02  0:01:43  256
    95  5.8609e-03  6.6086e-05  7.2681e-05  2.9656e-05  1.0132e-05  3.6193e-04  4.1520e-03  3.2495e+02  0:01:22  255
    96  5.7623e-03  6.5076e-05  7.1548e-05  2.8917e-05  9.8443e-06  3.5353e-04  4.0746e-03  3.2495e+02  0:01:56  254
    97  5.6677e-03  6.4141e-05  7.0498e-05  2.8148e-05  9.5790e-06  3.4609e-04  4.0072e-03  3.2495e+02  0:01:33  253
    98  5.5719e-03  6.3116e-05  6.9382e-05  2.7576e-05  9.3143e-06  3.3732e-04  3.9349e-03  3.2496e+02  0:01:14  252
    99  5.4824e-03  6.2228e-05  6.8402e-05  2.6766e-05  9.0572e-06  3.2980e-04  3.8670e-03  3.2496e+02  0:01:49  251

  iter  continuity  x-velocity  y-velocity  z-velocity      energy           k     epsilon  outlet-tem     time/iter
   100  5.3960e-03  6.1269e-05  6.7347e-05  2.6082e-05  8.8093e-06  3.2271e-04  3.8096e-03  3.2496e+02  0:01:27  250
   101  5.3075e-03  6.0334e-05  6.6323e-05  2.5466e-05  8.5669e-06  3.1569e-04  3.7607e-03  3.2496e+02  0:01:59  249
   102  5.2148e-03  5.9455e-05  6.5344e-05  2.4786e-05  8.3435e-06  3.0983e-04  3.7161e-03  3.2496e+02  0:01:35  248
   103  5.1214e-03  5.8518e-05  6.4306e-05  2.4261e-05  8.1228e-06  3.0346e-04  3.6682e-03  3.2497e+02  0:02:05  247
   104  5.0330e-03  5.7665e-05  6.3347e-05  2.3639e-05  7.9058e-06  2.9689e-04  3.6179e-03  3.2497e+02  0:01:40  246
   105  4.9438e-03  5.6760e-05  6.2358e-05  2.3075e-05  7.6970e-06  2.9114e-04  3.5700e-03  3.2497e+02  0:02:08  245
   106  4.8638e-03  5.5893e-05  6.1415e-05  2.2510e-05  7.4969e-06  2.8537e-04  3.5241e-03  3.2497e+02  0:01:42  244
   107  4.7906e-03  5.5039e-05  6.0479e-05  2.1968e-05  7.3013e-06  2.7975e-04  3.4850e-03  3.2497e+02  0:01:21  243
   108  4.7201e-03  5.4245e-05  5.9595e-05  2.1420e-05  7.1206e-06  2.7528e-04  3.4582e-03  3.2497e+02  0:01:53  242
   109  4.6469e-03  5.3408e-05  5.8673e-05  2.0950e-05  6.9493e-06  2.7088e-04  3.4364e-03  3.2498e+02  0:01:30  241
   110  4.5752e-03  5.2615e-05  5.7815e-05  2.0492e-05  6.7860e-06  2.6704e-04  3.4121e-03  3.2498e+02  0:02:00  240

  iter  continuity  x-velocity  y-velocity  z-velocity      energy           k     epsilon  outlet-tem     time/iter
   111  4.5081e-03  5.1845e-05  5.6980e-05  2.0025e-05  6.6309e-06  2.6327e-04  3.3861e-03  3.2498e+02  0:01:36  239
   112  4.4438e-03  5.1076e-05  5.6140e-05  1.9586e-05  6.4895e-06  2.5943e-04  3.3579e-03  3.2498e+02  0:01:16  238
   113  4.3755e-03  5.0301e-05  5.5294e-05  1.9210e-05  6.3475e-06  2.5558e-04  3.3272e-03  3.2498e+02  0:01:48  237
   114  4.3116e-03  4.9584e-05  5.4511e-05  1.8789e-05  6.2166e-06  2.5185e-04  3.2932e-03  3.2498e+02  0:01:26  236
   115  4.2446e-03  4.8808e-05  5.3678e-05  1.8451e-05  6.0869e-06  2.4769e-04  3.2560e-03  3.2498e+02  0:01:09  235
   116  4.1788e-03  4.8113e-05  5.2921e-05  1.8075e-05  5.9587e-06  2.4361e-04  3.2161e-03  3.2498e+02  0:01:41  234
   117  4.1151e-03  4.7409e-05  5.2142e-05  1.7706e-05  5.8359e-06  2.3985e-04  3.1775e-03  3.2499e+02  0:01:21  233
   118  4.0508e-03  4.6701e-05  5.1354e-05  1.7400e-05  5.7191e-06  2.3598e-04  3.1404e-03  3.2499e+02  0:01:51  232
   119  3.9908e-03  4.6036e-05  5.0611e-05  1.7060e-05  5.6204e-06  2.3280e-04  3.1021e-03  3.2499e+02  0:01:28  231
   120  3.9298e-03  4.5299e-05  4.9813e-05  1.6885e-05  5.5174e-06  2.2929e-04  3.0618e-03  3.2499e+02  0:01:10  230
   121  3.8709e-03  4.4660e-05  4.9118e-05  1.6538e-05  5.4055e-06  2.2578e-04  3.0227e-03  3.2499e+02  0:01:42  229

  iter  continuity  x-velocity  y-velocity  z-velocity      energy           k     epsilon  outlet-tem     time/iter
   122  3.8189e-03  4.4036e-05  4.8423e-05  1.6149e-05  5.3063e-06  2.2288e-04  2.9929e-03  3.2499e+02  0:01:21  228
   123  3.7631e-03  4.3358e-05  4.7678e-05  1.5862e-05  5.2121e-06  2.2017e-04  2.9698e-03  3.2499e+02  0:01:05  227
   124  3.7083e-03  4.2759e-05  4.7016e-05  1.5583e-05  5.1286e-06  2.1783e-04  2.9483e-03  3.2499e+02  0:01:37  226
   125  3.6523e-03  4.2109e-05  4.6314e-05  1.5384e-05  5.0437e-06  2.1515e-04  2.9268e-03  3.2499e+02  0:01:17  225
   126  3.6002e-03  4.1530e-05  4.5687e-05  1.5102e-05  4.9603e-06  2.1239e-04  2.9030e-03  3.2499e+02  0:01:46  224
   127  3.5523e-03  4.0940e-05  4.5042e-05  1.4831e-05  4.8852e-06  2.0989e-04  2.8796e-03  3.2499e+02  0:01:24  223
   128  3.5016e-03  4.0338e-05  4.4390e-05  1.4629e-05  4.8132e-06  2.0734e-04  2.8542e-03  3.2499e+02  0:01:07  222
   129  3.4524e-03  3.9767e-05  4.3770e-05  1.4421e-05  4.7363e-06  2.0482e-04  2.8267e-03  3.2499e+02  0:01:38  221
   130  3.4078e-03  3.9239e-05  4.3182e-05  1.4148e-05  4.6653e-06  2.0236e-04  2.8000e-03  3.2499e+02  0:01:18  220
   131  3.3624e-03  3.8666e-05  4.2554e-05  1.3943e-05  4.5948e-06  1.9980e-04  2.7763e-03  3.2499e+02  0:01:46  219
   132  3.3164e-03  3.8136e-05  4.1973e-05  1.3730e-05  4.5268e-06  1.9739e-04  2.7532e-03  3.2500e+02  0:01:24  218

  iter  continuity  x-velocity  y-velocity  z-velocity      energy           k     epsilon  outlet-tem     time/iter
   133  3.2738e-03  3.7622e-05  4.1411e-05  1.3507e-05  4.4664e-06  1.9509e-04  2.7279e-03  3.2500e+02  0:01:07  217
   134  3.2305e-03  3.7069e-05  4.0809e-05  1.3345e-05  4.4025e-06  1.9263e-04  2.6999e-03  3.2500e+02  0:01:37  216
   135  3.1882e-03  3.6582e-05  4.0272e-05  1.3131e-05  4.3450e-06  1.9033e-04  2.6681e-03  3.2500e+02  0:01:17  215
   136  3.1467e-03  3.6050e-05  3.9689e-05  1.2974e-05  4.2829e-06  1.8791e-04  2.6329e-03  3.2500e+02  0:01:01  214
   137  3.1078e-03  3.5567e-05  3.9154e-05  1.2759e-05  4.2257e-06  1.8586e-04  2.5951e-03  3.2500e+02  0:01:31  213
   138  3.0669e-03  3.5046e-05  3.8583e-05  1.2606e-05  4.1673e-06  1.8337e-04  2.5561e-03  3.2500e+02  0:01:13  212
   139  3.0256e-03  3.4556e-05  3.8047e-05  1.2443e-05  4.1132e-06  1.8086e-04  2.5139e-03  3.2500e+02  0:01:40  211
   140  2.9837e-03  3.4048e-05  3.7499e-05  1.2323e-05  4.0496e-06  1.7797e-04  2.4705e-03  3.2500e+02  0:01:20  210
   141  2.9446e-03  3.3608e-05  3.7014e-05  1.2057e-05  3.9909e-06  1.7542e-04  2.4291e-03  3.2500e+02  0:01:03  209
   142  2.9060e-03  3.3111e-05  3.6468e-05  1.1888e-05  3.9324e-06  1.7299e-04  2.3953e-03  3.2500e+02  0:01:32  208
   143  2.8676e-03  3.2668e-05  3.5982e-05  1.1709e-05  3.8749e-06  1.7079e-04  2.3665e-03  3.2500e+02  0:01:13  207

  iter  continuity  x-velocity  y-velocity  z-velocity      energy           k     epsilon  outlet-tem     time/iter
   144  2.8283e-03  3.2219e-05  3.5490e-05  1.1541e-05  3.8201e-06  1.6837e-04  2.3401e-03  3.2500e+02  0:00:58  206
   145  2.7884e-03  3.1772e-05  3.5000e-05  1.1386e-05  3.7647e-06  1.6603e-04  2.3142e-03  3.2500e+02  0:01:27  205
   146  2.7519e-03  3.1338e-05  3.4521e-05  1.1223e-05  3.7082e-06  1.6372e-04  2.2886e-03  3.2500e+02  0:01:10  204
   147  2.7159e-03  3.0916e-05  3.4053e-05  1.1049e-05  3.6523e-06  1.6149e-04  2.2637e-03  3.2500e+02  0:01:36  203
   148  2.6830e-03  3.0499e-05  3.3593e-05  1.0880e-05  3.5985e-06  1.5944e-04  2.2397e-03  3.2500e+02  0:01:16  202
   149  2.6486e-03  3.0080e-05  3.3137e-05  1.0724e-05  3.5464e-06  1.5748e-04  2.2162e-03  3.2500e+02  0:01:01  201
   150  2.6129e-03  2.9668e-05  3.2690e-05  1.0581e-05  3.4953e-06  1.5542e-04  2.1918e-03  3.2500e+02  0:01:28  200
   151  2.5781e-03  2.9265e-05  3.2254e-05  1.0430e-05  3.4498e-06  1.5338e-04  2.1653e-03  3.2500e+02  0:01:10  199
   152  2.5417e-03  2.8829e-05  3.1785e-05  1.0334e-05  3.4000e-06  1.5118e-04  2.1371e-03  3.2500e+02  0:01:36  198
   153  2.5085e-03  2.8444e-05  3.1371e-05  1.0152e-05  3.3512e-06  1.4914e-04  2.1101e-03  3.2500e+02  0:01:16  197
   154  2.4772e-03  2.8042e-05  3.0932e-05  9.9982e-06  3.3033e-06  1.4712e-04  2.0859e-03  3.2500e+02  0:01:01  196

  iter  continuity  x-velocity  y-velocity  z-velocity      energy           k     epsilon  outlet-tem     time/iter
   155  2.4425e-03  2.7651e-05  3.0504e-05  9.8597e-06  3.2549e-06  1.4530e-04  2.0647e-03  3.2500e+02  0:01:27  195
   156  2.4094e-03  2.7286e-05  3.0097e-05  9.7153e-06  3.2090e-06  1.4353e-04  2.0444e-03  3.2500e+02  0:01:09  194
   157  2.3764e-03  2.6907e-05  2.9679e-05  9.5853e-06  3.1668e-06  1.4179e-04  2.0228e-03  3.2500e+02  0:00:55  193
   158  2.3435e-03  2.6524e-05  2.9262e-05  9.4823e-06  3.1221e-06  1.3999e-04  1.9988e-03  3.2500e+02  0:01:22  192
   159  2.3124e-03  2.6168e-05  2.8872e-05  9.3408e-06  3.0834e-06  1.3818e-04  1.9709e-03  3.2500e+02  0:01:06  191
   160  2.2800e-03  2.5767e-05  2.8436e-05  9.2642e-06  3.0363e-06  1.3600e-04  1.9430e-03  3.2500e+02  0:01:30  190
   161  2.2503e-03  2.5444e-05  2.8077e-05  9.0762e-06  2.9972e-06  1.3403e-04  1.9152e-03  3.2500e+02  0:01:12  189
   162  2.2196e-03  2.5049e-05  2.7640e-05  8.9854e-06  2.9552e-06  1.3210e-04  1.8892e-03  3.2500e+02  0:00:57  188
   163  2.1896e-03  2.4719e-05  2.7272e-05  8.8493e-06  2.9121e-06  1.3032e-04  1.8641e-03  3.2500e+02  0:01:23  187
   164  2.1616e-03  2.4379e-05  2.6890e-05  8.7132e-06  2.8739e-06  1.2856e-04  1.8393e-03  3.2500e+02  0:01:06  186
   165  2.1316e-03  2.4022e-05  2.6497e-05  8.6204e-06  2.8323e-06  1.2665e-04  1.8157e-03  3.2500e+02  0:00:52  185

  iter  continuity  x-velocity  y-velocity  z-velocity      energy           k     epsilon  outlet-tem     time/iter
   166  2.1038e-03  2.3709e-05  2.6147e-05  8.4784e-06  2.7935e-06  1.2478e-04  1.7911e-03  3.2500e+02  0:01:19  184
   167  2.0759e-03  2.3364e-05  2.5765e-05  8.3744e-06  2.7521e-06  1.2303e-04  1.7677e-03  3.2500e+02  0:01:02  183
   168  2.0485e-03  2.3058e-05  2.5422e-05  8.2392e-06  2.7157e-06  1.2150e-04  1.7446e-03  3.2500e+02  0:01:26  182
   169  2.0196e-03  2.2712e-05  2.5043e-05  8.1558e-06  2.6787e-06  1.1982e-04  1.7219e-03  3.2500e+02  0:01:09  181
   170  1.9909e-03  2.2405e-05  2.4703e-05  8.0347e-06  2.6385e-06  1.1813e-04  1.6994e-03  3.2500e+02  0:00:55  180
   171  1.9654e-03  2.2101e-05  2.4362e-05  7.8967e-06  2.6058e-06  1.1663e-04  1.6781e-03  3.2500e+02  0:01:19  179
   172  1.9380e-03  2.1755e-05  2.3987e-05  7.8499e-06  2.5666e-06  1.1481e-04  1.6559e-03  3.2500e+02  0:01:03  178
   173  1.9125e-03  2.1484e-05  2.3684e-05  7.6836e-06  2.5300e-06  1.1319e-04  1.6334e-03  3.2500e+02  0:00:50  177
   174  1.8883e-03  2.1166e-05  2.3333e-05  7.5792e-06  2.4946e-06  1.1162e-04  1.6124e-03  3.2500e+02  0:01:15  176
   175  1.8627e-03  2.0872e-05  2.3008e-05  7.4772e-06  2.4586e-06  1.1007e-04  1.5916e-03  3.2500e+02  0:01:00  175
   176  1.8382e-03  2.0584e-05  2.2687e-05  7.3671e-06  2.4230e-06  1.0851e-04  1.5714e-03  3.2500e+02  0:01:22  174

  iter  continuity  x-velocity  y-velocity  z-velocity      energy           k     epsilon  outlet-tem     time/iter
   177  1.8139e-03  2.0303e-05  2.2373e-05  7.2535e-06  2.3883e-06  1.0695e-04  1.5523e-03  3.2500e+02  0:01:05  173
   178  1.7903e-03  2.0020e-05  2.2058e-05  7.1486e-06  2.3517e-06  1.0548e-04  1.5344e-03  3.2500e+02  0:00:52  172
   179  1.7675e-03  1.9751e-05  2.1758e-05  7.0312e-06  2.3201e-06  1.0407e-04  1.5173e-03  3.2500e+02  0:01:16  171
   180  1.7415e-03  1.9462e-05  2.1441e-05  6.9485e-06  2.2879e-06  1.0260e-04  1.4987e-03  3.2500e+02  0:01:00  170
   181  1.7160e-03  1.9196e-05  2.1148e-05  6.8546e-06  2.2546e-06  1.0108e-04  1.4779e-03  3.2500e+02  0:01:22  169
   182  1.6930e-03  1.8932e-05  2.0856e-05  6.7422e-06  2.2228e-06  9.9608e-05  1.4566e-03  3.2500e+02  0:01:05  168
   183  1.6705e-03  1.8662e-05  2.0558e-05  6.6478e-06  2.1919e-06  9.8120e-05  1.4354e-03  3.2500e+02  0:01:25  167
   184  1.6480e-03  1.8404e-05  2.0272e-05  6.5512e-06  2.1581e-06  9.6627e-05  1.4150e-03  3.2500e+02  0:01:08  166
   185  1.6273e-03  1.8168e-05  2.0006e-05  6.4388e-06  2.1306e-06  9.5176e-05  1.3953e-03  3.2500e+02  0:00:54  165
   186  1.6032e-03  1.7884e-05  1.9697e-05  6.3872e-06  2.1010e-06  9.3675e-05  1.3751e-03  3.2500e+02  0:01:16  164
   187  1.5804e-03  1.7649e-05  1.9439e-05  6.2855e-06  2.0705e-06  9.2213e-05  1.3532e-03  3.2500e+02  0:01:00  163

  iter  continuity  x-velocity  y-velocity  z-velocity      energy           k     epsilon  outlet-tem     time/iter
   188  1.5581e-03  1.7398e-05  1.9161e-05  6.1872e-06  2.0423e-06  9.0772e-05  1.3306e-03  3.2500e+02  0:01:20  162
   189  1.5361e-03  1.7142e-05  1.8882e-05  6.1157e-06  2.0111e-06  8.9329e-05  1.3085e-03  3.2500e+02  0:01:04  161
   190  1.5151e-03  1.6917e-05  1.8630e-05  6.0009e-06  1.9811e-06  8.8038e-05  1.2871e-03  3.2500e+02  0:00:51  160
   191  1.4943e-03  1.6672e-05  1.8358e-05  5.9153e-06  1.9497e-06  8.6708e-05  1.2676e-03  3.2500e+02  0:01:12  159
   192  1.4743e-03  1.6453e-05  1.8114e-05  5.8164e-06  1.9218e-06  8.5415e-05  1.2490e-03  3.2500e+02  0:01:29  158
   193  1.4531e-03  1.6212e-05  1.7851e-05  5.7470e-06  1.8948e-06  8.4099e-05  1.2303e-03  3.2500e+02  0:01:11  157
   194  1.4315e-03  1.5989e-05  1.7605e-05  5.6778e-06  1.8679e-06  8.2700e-05  1.2100e-03  3.2500e+02  0:00:56  156
   195  1.4121e-03  1.5767e-05  1.7361e-05  5.5902e-06  1.8395e-06  8.1338e-05  1.1891e-03  3.2500e+02  0:01:16  155
   196  1.3934e-03  1.5551e-05  1.7121e-05  5.4965e-06  1.8133e-06  8.0091e-05  1.1691e-03  3.2500e+02  0:01:00  154
   197  1.3735e-03  1.5323e-05  1.6872e-05  5.4323e-06  1.7852e-06  7.8863e-05  1.1507e-03  3.2500e+02  0:00:48  153
   198  1.3546e-03  1.5126e-05  1.6651e-05  5.3342e-06  1.7589e-06  7.7694e-05  1.1335e-03  3.2500e+02  0:01:08  152

  iter  continuity  x-velocity  y-velocity  z-velocity      energy           k     epsilon  outlet-tem     time/iter
   199  1.3360e-03  1.4910e-05  1.6412e-05  5.2587e-06  1.7298e-06  7.6524e-05  1.1185e-03  3.2500e+02  0:00:54  151
   200  1.3192e-03  1.4725e-05  1.6203e-05  5.1676e-06  1.7031e-06  7.5472e-05  1.1057e-03  3.2500e+02  0:01:13  150
   201  1.3018e-03  1.4519e-05  1.5974e-05  5.0917e-06  1.6778e-06  7.4422e-05  1.0942e-03  3.2500e+02  0:00:58  149
   202  1.2835e-03  1.4327e-05  1.5762e-05  5.0215e-06  1.6530e-06  7.3430e-05  1.0827e-03  3.2500e+02  0:00:46  148
   203  1.2649e-03  1.4135e-05  1.5549e-05  4.9499e-06  1.6289e-06  7.2375e-05  1.0696e-03  3.2500e+02  0:01:06  147
   204  1.2471e-03  1.3946e-05  1.5338e-05  4.8782e-06  1.6062e-06  7.1341e-05  1.0550e-03  3.2500e+02  0:00:53  146
   205  1.2292e-03  1.3749e-05  1.5121e-05  4.8165e-06  1.5838e-06  7.0290e-05  1.0394e-03  3.2500e+02  0:01:11  145
   206  1.2116e-03  1.3561e-05  1.4914e-05  4.7469e-06  1.5616e-06  6.9221e-05  1.0237e-03  3.2500e+02  0:00:56  144
   207  1.1949e-03  1.3374e-05  1.4707e-05  4.6782e-06  1.5398e-06  6.8184e-05  1.0083e-03  3.2500e+02  0:00:45  143
   208  1.1782e-03  1.3186e-05  1.4497e-05  4.6158e-06  1.5177e-06  6.7176e-05  9.9299e-04  3.2500e+02  0:01:04  142
   209  1.1615e-03  1.3003e-05  1.4294e-05  4.5483e-06  1.4954e-06  6.6186e-05  9.7824e-04  3.2500e+02  0:00:51  141

  iter  continuity  x-velocity  y-velocity  z-velocity      energy           k     epsilon  outlet-tem     time/iter
   210  1.1458e-03  1.2827e-05  1.4097e-05  4.4754e-06  1.4739e-06  6.5240e-05  9.6436e-04  3.2500e+02  0:00:40  140
   211  1.1302e-03  1.2649e-05  1.3899e-05  4.4105e-06  1.4523e-06  6.4279e-05  9.5147e-04  3.2500e+02  0:01:00  139
   212  1.1150e-03  1.2477e-05  1.3707e-05  4.3414e-06  1.4313e-06  6.3355e-05  9.3909e-04  3.2500e+02  0:00:48  138
   213  1.0991e-03  1.2302e-05  1.3515e-05  4.2847e-06  1.4119e-06  6.2424e-05  9.2642e-04  3.2500e+02  0:01:05  137
   214  1.0830e-03  1.2128e-05  1.3326e-05  4.2351e-06  1.3925e-06  6.1474e-05  9.1268e-04  3.2500e+02  0:00:52  136
   215  1.0677e-03  1.1961e-05  1.3142e-05  4.1716e-06  1.3735e-06  6.0535e-05  8.9938e-04  3.2500e+02  0:00:41  135
   216  1.0522e-03  1.1791e-05  1.2955e-05  4.1105e-06  1.3545e-06  5.9624e-05  8.8656e-04  3.2500e+02  0:00:59  134
   217  1.0375e-03  1.1625e-05  1.2771e-05  4.0498e-06  1.3363e-06  5.8780e-05  8.7391e-04  3.2500e+02  0:00:47  133
   218  1.0227e-03  1.1459e-05  1.2588e-05  3.9973e-06  1.3153e-06  5.7948e-05  8.6220e-04  3.2500e+02  0:01:04  132
   219  1.0093e-03  1.1316e-05  1.2424e-05  3.9174e-06  1.2969e-06  5.7214e-05  8.5108e-04  3.2500e+02  0:00:51  131
   220  9.9496e-04  1.1145e-05  1.2234e-05  3.8680e-06  1.2769e-06  5.6444e-05  8.4051e-04  3.2500e+02  0:01:06  130

  iter  continuity  x-velocity  y-velocity  z-velocity      energy           k     epsilon  outlet-tem     time/iter
   221  9.8134e-04  1.1007e-05  1.2077e-05  3.8020e-06  1.2589e-06  5.5670e-05  8.2972e-04  3.2500e+02  0:00:53  129
   222  9.6704e-04  1.0847e-05  1.1901e-05  3.7539e-06  1.2411e-06  5.4844e-05  8.1884e-04  3.2500e+02  0:00:42  128
   223  9.5312e-04  1.0703e-05  1.1740e-05  3.6988e-06  1.2233e-06  5.4032e-05  8.0727e-04  3.2500e+02  0:00:59  127
   224  9.3962e-04  1.0554e-05  1.1574e-05  3.6456e-06  1.2062e-06  5.3243e-05  7.9492e-04  3.2500e+02  0:00:46  126
   225  9.2639e-04  1.0407e-05  1.1411e-05  3.5962e-06  1.1892e-06  5.2415e-05  7.8212e-04  3.2500e+02  0:01:02  125
   226  9.1348e-04  1.0264e-05  1.1253e-05  3.5424e-06  1.1724e-06  5.1587e-05  7.6931e-04  3.2500e+02  0:00:49  124
   227  9.0104e-04  1.0121e-05  1.1096e-05  3.4904e-06  1.1555e-06  5.0775e-05  7.5707e-04  3.2500e+02  0:00:39  123
   228  8.8894e-04  9.9831e-06  1.0942e-05  3.4382e-06  1.1395e-06  4.9982e-05  7.4525e-04  3.2500e+02  0:00:55  122
   229  8.7638e-04  9.8405e-06  1.0786e-05  3.3946e-06  1.1232e-06  4.9174e-05  7.3329e-04  3.2500e+02  0:00:44  121
   230  8.6404e-04  9.7045e-06  1.0636e-05  3.3470e-06  1.1069e-06  4.8381e-05  7.2129e-04  3.2500e+02  0:00:59  120
   231  8.5195e-04  9.5683e-06  1.0486e-05  3.2980e-06  1.0897e-06  4.7598e-05  7.1009e-04  3.2500e+02  0:00:47  119

  iter  continuity  x-velocity  y-velocity  z-velocity      energy           k     epsilon  outlet-tem     time/iter
   232  8.4051e-04  9.4421e-06  1.0344e-05  3.2402e-06  1.0744e-06  4.6885e-05  6.9960e-04  3.2500e+02  0:00:37  118
   233  8.2845e-04  9.2999e-06  1.0189e-05  3.2038e-06  1.0583e-06  4.6162e-05  6.8952e-04  3.2500e+02  0:00:53  117
   234  8.1658e-04  9.1779e-06  1.0053e-05  3.1500e-06  1.0426e-06  4.5499e-05  6.7924e-04  3.2500e+02  0:00:42  116
   235  8.0510e-04  9.0465e-06  9.9076e-06  3.1043e-06  1.0269e-06  4.4818e-05  6.6903e-04  3.2500e+02  0:00:56  115
   236  7.9372e-04  8.9217e-06  9.7691e-06  3.0577e-06  1.0116e-06  4.4153e-05  6.5908e-04  3.2500e+02  0:00:45  114
   237  7.8277e-04  8.7967e-06  9.6304e-06  3.0121e-06  9.9732e-07  4.3535e-05  6.4974e-04  3.2500e+02  0:00:35  113
!  237 solution is converged
Performance profile written to C:/Users/Dell/AppData/Local/Temp/_ALI-DESKTOP_2568/run-information.txt
Performance profile written to C:/Users/Dell/AppData/Local/Temp/_ALI-DESKTOP_2568/run-information.txt

number tracked = 204, escaped = 204

Writing "C:/Users/Dell/AppData/Local/Temp/_ALI-DESKTOP_2568/scene-lic-temp_scene.avz" ...
Done.

Writing "C:/Users/Dell/AppData/Local/Temp/_ALI-DESKTOP_2568/scene-lic-vel_scene.avz" ...
Done.

Writing "C:/Users/Dell/AppData/Local/Temp/_ALI-DESKTOP_2568/scene-vectors_scene.avz" ...
Done.

number tracked = 204, escaped = 204

number tracked = 204, escaped = 204

Writing "C:/Users/Dell/AppData/Local/Temp/_ALI-DESKTOP_2568/scene-pathlines-temp_scene.avz" ...
Done.

Writing "C:/Users/Dell/AppData/Local/Temp/_ALI-DESKTOP_2568/scene-vel-inlet-plane_scene.avz" ...
Done.

Writing "C:/Users/Dell/AppData/Local/Temp/_ALI-DESKTOP_2568/scene-temp-walls_scene.avz" ...
Done.

Writing "C:/Users/Dell/AppData/Local/Temp/_ALI-DESKTOP_2568/scene-temp-inlet-plane_scene.avz" ...
Done.

Writing to ALI-DESKTOP:"D:/HPC Workshop/Ansys Cases/parametric_mixer/parametric_ansys_project/Static_Mixer.cffdb\Static_Mixer-Solve\DP5\Static_Mixer.cas.h5" in NODE0 mode and compression level 1 ...
Grouping cells for Laplace smoothing ...
       22771 cells,     1 zone  ...
      119140 faces,     5 zones ...
       82247 nodes,     1 zone  ...
  Done.
Done.

Writing to ALI-DESKTOP:"D:/HPC Workshop/Ansys Cases/parametric_mixer/parametric_ansys_project/Static_Mixer.cffdb\Static_Mixer-Solve\DP5\Static_Mixer.dat.h5" in NODE0 mode and compression level 1 ...
  Writing results.
Done.
