Multicore SMT processors detected. Processor affinity set!

       Clearing partially read grid.

Reading from ALI-DESKTOP:"D:/HPC Workshop/Ansys Cases/parametric_mixer/parametric_ansys_project/Static_Mixer.cffdb\Static_Mixer-Solve\BaseCases\Static_Mixer.cas.h5" in NODE0 mode ...
  Reading mesh ...
       22771 cells,     1 cell zone  ...
          22771 polyhedra cells,  zone id: 97
      119140 faces,     5 face zones ...
         114959 polygonal interior faces,  zone id: 96
           3873 polygonal wall faces,  zone id: 20
            104 polygonal pressure-outlet faces,  zone id: 19
            103 polygonal velocity-inlet faces,  zone id: 18
            101 polygonal velocity-inlet faces,  zone id: 17
       82247 nodes,     1 node zone  ...
  Done.


Building...
     mesh
	distributing mesh
		parts....,
		faces....,
		nodes....,
		cells....,
        bandwidth reduction using Reverse Cuthill-McKee: 5673/485 = 11.6969
     materials,
     interface,
     domains,
	mixture
     zones,
	interior--fluid
	wall
	outlet
	inlet2
	inlet1
	fluid
     parallel,
Done.

Applying input parameter values ...


  iter  continuity  x-velocity  y-velocity  z-velocity      energy           k     epsilon  outlet-tem     time/iter

 Reversed flow on 11 faces (20.3% area) of pressure-outlet 19.
     1  1.0000e+00  1.8293e-03  8.1793e-03  6.9485e-04  9.4273e-04  1.7872e-01  6.9373e+01  3.0000e+02  0:05:49  349

 Reversed flow on 5 faces (2.6% area) of pressure-outlet 19.
     2  8.8007e-01  9.1673e-03  5.8928e-02  1.1855e-02  1.0411e-03  1.2895e-01  3.8600e-01  3.0007e+02  0:05:48  348

 Reversed flow on 5 faces (2.6% area) of pressure-outlet 19.
     3  6.3601e-01  6.6369e-03  3.8144e-02  7.9592e-03  1.1157e-03  9.1763e-02  4.0294e-01  3.0051e+02  0:05:47  347
     4  5.4357e-01  3.8049e-03  1.8397e-02  4.6940e-03  1.1227e-03  8.7408e-02  7.2146e-01  3.0238e+02  0:04:37  346
     5  4.7946e-01  2.8702e-03  1.0622e-02  2.5665e-03  9.2311e-04  6.7729e-02  1.2496e+00  3.0425e+02  0:04:50  345
     6  3.7792e-01  2.3147e-03  5.9861e-03  1.9784e-03  7.4247e-04  5.0793e-02  1.3710e+00  3.0601e+02  0:03:51  344
     7  2.8497e-01  1.9423e-03  3.8071e-03  1.5152e-03  6.1359e-04  3.6357e-02  1.1047e+00  3.0779e+02  0:03:04  343
     8  2.0482e-01  1.6561e-03  2.7118e-03  1.2451e-03  5.2599e-04  2.5430e-02  7.9280e-01  3.0947e+02  0:03:35  342
     9  1.4543e-01  1.4420e-03  2.1262e-03  1.0044e-03  4.7275e-04  1.7709e-02  5.4120e-01  3.1103e+02  0:02:52  341
    10  1.0527e-01  1.2818e-03  1.7845e-03  8.5154e-04  4.1873e-04  1.2231e-02  3.5742e-01  3.1248e+02  0:03:25  340
    11  8.3259e-02  1.1610e-03  1.5706e-03  7.1372e-04  3.6730e-04  8.3210e-03  2.2715e-01  3.1380e+02  0:02:44  339

  iter  continuity  x-velocity  y-velocity  z-velocity      energy           k     epsilon  outlet-tem     time/iter
    12  7.2457e-02  1.0737e-03  1.4317e-03  6.2340e-04  3.2260e-04  5.7575e-03  1.3635e-01  3.1499e+02  0:02:10  338
    13  6.5451e-02  1.0139e-03  1.3313e-03  5.6090e-04  2.8538e-04  4.3651e-03  7.6529e-02  3.1603e+02  0:02:51  337
    14  5.9412e-02  9.7335e-04  1.2540e-03  5.1480e-04  2.5616e-04  3.7618e-03  4.6046e-02  3.1692e+02  0:02:17  336
    15  5.4556e-02  9.4440e-04  1.1909e-03  4.8260e-04  2.3152e-04  3.5635e-03  3.7320e-02  3.1767e+02  0:01:49  335
    16  5.0916e-02  9.1617e-04  1.1335e-03  4.5970e-04  2.1122e-04  3.5063e-03  3.8627e-02  3.1835e+02  0:02:34  334
    17  4.8159e-02  8.8856e-04  1.0813e-03  4.4095e-04  1.9452e-04  3.4627e-03  4.1338e-02  3.1893e+02  0:02:03  333
    18  4.6482e-02  8.6180e-04  1.0323e-03  4.2585e-04  1.7955e-04  3.3755e-03  4.2183e-02  3.1947e+02  0:02:44  332
    19  4.5391e-02  8.3373e-04  9.8506e-04  4.1094e-04  1.6649e-04  3.2363e-03  4.1198e-02  3.1994e+02  0:02:11  331
    20  4.4527e-02  8.0407e-04  9.3833e-04  3.9468e-04  1.5479e-04  3.0723e-03  3.8947e-02  3.2039e+02  0:01:44  330
    21  4.3643e-02  7.7281e-04  8.9160e-04  3.7876e-04  1.4410e-04  2.8881e-03  3.5962e-02  3.2079e+02  0:02:29  329
    22  4.2560e-02  7.4121e-04  8.4592e-04  3.6016e-04  1.3432e-04  2.7172e-03  3.3030e-02  3.2117e+02  0:01:59  328

  iter  continuity  x-velocity  y-velocity  z-velocity      energy           k     epsilon  outlet-tem     time/iter
    23  4.1434e-02  7.0906e-04  8.0205e-04  3.4237e-04  1.2557e-04  2.5626e-03  3.0601e-02  3.2150e+02  0:02:40  327
    24  4.0154e-02  6.7609e-04  7.5918e-04  3.2479e-04  1.1749e-04  2.4101e-03  2.8509e-02  3.2183e+02  0:02:08  326
    25  3.8828e-02  6.4324e-04  7.1720e-04  3.0711e-04  1.0950e-04  2.2596e-03  2.6464e-02  3.2213e+02  0:01:42  325
    26  3.7348e-02  6.1120e-04  6.7654e-04  2.8865e-04  1.0205e-04  2.1211e-03  2.4547e-02  3.2243e+02  0:02:26  324
    27  3.5919e-02  5.7922e-04  6.3798e-04  2.7221e-04  9.4838e-05  1.9760e-03  2.2552e-02  3.2269e+02  0:01:57  323
    28  3.4375e-02  5.4885e-04  6.0150e-04  2.5417e-04  8.7750e-05  1.8517e-03  2.0740e-02  3.2295e+02  0:02:37  322
    29  3.2800e-02  5.1818e-04  5.6629e-04  2.3969e-04  8.0943e-05  1.7318e-03  1.8981e-02  3.2319e+02  0:02:05  321
    30  3.1185e-02  4.8961e-04  5.3366e-04  2.2477e-04  7.4738e-05  1.6207e-03  1.7393e-02  3.2342e+02  0:02:44  320
    31  2.9635e-02  4.6266e-04  5.0282e-04  2.1148e-04  6.8767e-05  1.5310e-03  1.6035e-02  3.2363e+02  0:02:11  319
    32  2.8208e-02  4.3683e-04  4.7355e-04  1.9982e-04  6.3273e-05  1.4452e-03  1.4848e-02  3.2383e+02  0:01:44  318
    33  2.6838e-02  4.1297e-04  4.4641e-04  1.8821e-04  5.8239e-05  1.3634e-03  1.3825e-02  3.2401e+02  0:02:27  317

  iter  continuity  x-velocity  y-velocity  z-velocity      energy           k     epsilon  outlet-tem     time/iter
    34  2.5554e-02  3.9035e-04  4.2113e-04  1.7835e-04  5.3709e-05  1.2848e-03  1.2900e-02  3.2418e+02  0:01:57  316
    35  2.4361e-02  3.6953e-04  3.9793e-04  1.6838e-04  4.9631e-05  1.2118e-03  1.2058e-02  3.2435e+02  0:02:36  315
    36  2.3297e-02  3.4985e-04  3.7616e-04  1.5912e-04  4.6060e-05  1.1477e-03  1.1337e-02  3.2450e+02  0:02:05  314
    37  2.2285e-02  3.3168e-04  3.5618e-04  1.5056e-04  4.3005e-05  1.0955e-03  1.0753e-02  3.2464e+02  0:01:39  313
    38  2.1373e-02  3.1466e-04  3.3803e-04  1.4307e-04  4.0429e-05  1.0518e-03  1.0287e-02  3.2478e+02  0:02:22  312
    39  2.0492e-02  2.9914e-04  3.2163e-04  1.3587e-04  3.8298e-05  1.0175e-03  9.9397e-03  3.2490e+02  0:01:53  311
    40  1.9673e-02  2.8387e-04  3.0612e-04  1.2995e-04  3.6390e-05  9.8722e-04  9.7048e-03  3.2502e+02  0:01:30  310
    41  1.8906e-02  2.7033e-04  2.9188e-04  1.2295e-04  3.4725e-05  9.6945e-04  9.5618e-03  3.2512e+02  0:02:14  309
    42  1.8226e-02  2.5674e-04  2.7812e-04  1.1719e-04  3.3208e-05  9.5754e-04  9.5006e-03  3.2522e+02  0:01:47  308
    43  1.7577e-02  2.4421e-04  2.6541e-04  1.1130e-04  3.1808e-05  9.5063e-04  9.5182e-03  3.2531e+02  0:01:25  307
    44  1.6932e-02  2.3209e-04  2.5337e-04  1.0588e-04  3.0571e-05  9.4304e-04  9.5473e-03  3.2540e+02  0:02:09  306

  iter  continuity  x-velocity  y-velocity  z-velocity      energy           k     epsilon  outlet-tem     time/iter
    45  1.6314e-02  2.2028e-04  2.4188e-04  1.0138e-04  2.9418e-05  9.3213e-04  9.6065e-03  3.2548e+02  0:01:43  305
    46  1.5697e-02  2.0973e-04  2.3124e-04  9.6179e-05  2.8319e-05  9.2156e-04  9.6520e-03  3.2555e+02  0:02:23  304
    47  1.5130e-02  1.9930e-04  2.2068e-04  9.1793e-05  2.7272e-05  9.1014e-04  9.6838e-03  3.2561e+02  0:01:54  303
    48  1.4565e-02  1.8969e-04  2.1079e-04  8.7645e-05  2.6212e-05  8.9488e-04  9.6662e-03  3.2567e+02  0:02:31  302
    49  1.4034e-02  1.8050e-04  2.0136e-04  8.3832e-05  2.5201e-05  8.7510e-04  9.6138e-03  3.2572e+02  0:02:01  301
    50  1.3513e-02  1.7232e-04  1.9263e-04  7.9974e-05  2.4210e-05  8.5520e-04  9.5229e-03  3.2576e+02  0:01:36  300
    51  1.3003e-02  1.6446e-04  1.8427e-04  7.6482e-05  2.3243e-05  8.3322e-04  9.3860e-03  3.2580e+02  0:02:16  299
    52  1.2527e-02  1.5718e-04  1.7654e-04  7.3128e-05  2.2219e-05  8.0946e-04  9.2013e-03  3.2584e+02  0:01:49  298
    53  1.2090e-02  1.5057e-04  1.6935e-04  6.9859e-05  2.1205e-05  7.8309e-04  8.9781e-03  3.2587e+02  0:01:27  297
    54  1.1681e-02  1.4440e-04  1.6248e-04  6.6892e-05  2.0259e-05  7.5718e-04  8.7081e-03  3.2589e+02  0:02:08  296
    55  1.1303e-02  1.3876e-04  1.5603e-04  6.4114e-05  1.9402e-05  7.3041e-04  8.3921e-03  3.2592e+02  0:01:42  295

  iter  continuity  x-velocity  y-velocity  z-velocity      energy           k     epsilon  outlet-tem     time/iter
    56  1.0932e-02  1.3355e-04  1.5006e-04  6.1606e-05  1.8658e-05  7.0212e-04  8.0330e-03  3.2594e+02  0:02:20  294
    57  1.0582e-02  1.2890e-04  1.4470e-04  5.9137e-05  1.7985e-05  6.7337e-04  7.6517e-03  3.2595e+02  0:01:52  293
    58  1.0286e-02  1.2472e-04  1.3983e-04  5.6776e-05  1.7434e-05  6.4742e-04  7.2812e-03  3.2597e+02  0:01:29  292
    59  9.9892e-03  1.2067e-04  1.3519e-04  5.4778e-05  1.6995e-05  6.2461e-04  6.9438e-03  3.2598e+02  0:02:09  291
    60  9.7037e-03  1.1719e-04  1.3115e-04  5.3086e-05  1.6731e-05  6.0429e-04  6.6333e-03  3.2599e+02  0:01:43  290
    61  9.4596e-03  1.1398e-04  1.2746e-04  5.1782e-05  1.6604e-05  5.8791e-04  6.3484e-03  3.2600e+02  0:01:22  289
    62  9.2456e-03  1.1111e-04  1.2421e-04  5.0789e-05  1.6546e-05  5.7430e-04  6.1089e-03  3.2601e+02  0:02:03  288
    63  9.0517e-03  1.0852e-04  1.2129e-04  4.9974e-05  1.6328e-05  5.6358e-04  5.9075e-03  3.2602e+02  0:01:38  287
    64  8.9059e-03  1.0597e-04  1.1857e-04  4.9509e-05  1.6167e-05  5.5539e-04  5.7412e-03  3.2603e+02  0:02:15  286
    65  8.7770e-03  1.0386e-04  1.1627e-04  4.9042e-05  1.6059e-05  5.4895e-04  5.6052e-03  3.2604e+02  0:01:48  285
    66  8.6714e-03  1.0181e-04  1.1402e-04  4.8759e-05  1.6036e-05  5.4501e-04  5.5108e-03  3.2604e+02  0:01:26  284

  iter  continuity  x-velocity  y-velocity  z-velocity      energy           k     epsilon  outlet-tem     time/iter
    67  8.5601e-03  9.9867e-05  1.1201e-04  4.8690e-05  1.6034e-05  5.4222e-04  5.4383e-03  3.2605e+02  0:02:05  283
    68  8.4551e-03  9.8229e-05  1.1036e-04  4.8579e-05  1.6082e-05  5.4001e-04  5.3877e-03  3.2605e+02  0:01:40  282
    69  8.3512e-03  9.6515e-05  1.0871e-04  4.8643e-05  1.6110e-05  5.3798e-04  5.3555e-03  3.2606e+02  0:01:20  281
    70  8.2528e-03  9.5015e-05  1.0720e-04  4.8486e-05  1.6129e-05  5.3642e-04  5.3406e-03  3.2607e+02  0:01:59  280
    71  8.1706e-03  9.3384e-05  1.0558e-04  4.8432e-05  1.6116e-05  5.3489e-04  5.3320e-03  3.2607e+02  0:01:35  279
    72  8.0858e-03  9.1865e-05  1.0406e-04  4.8352e-05  1.6062e-05  5.3043e-04  5.3107e-03  3.2608e+02  0:02:11  278
    73  7.9999e-03  9.0530e-05  1.0262e-04  4.8005e-05  1.5995e-05  5.2523e-04  5.2902e-03  3.2609e+02  0:01:45  277
    74  7.9139e-03  8.9155e-05  1.0112e-04  4.7688e-05  1.5909e-05  5.2071e-04  5.2782e-03  3.2609e+02  0:01:24  276
    75  7.8277e-03  8.7931e-05  9.9645e-05  4.7270e-05  1.5783e-05  5.1631e-04  5.2702e-03  3.2610e+02  0:02:02  275
    76  7.7172e-03  8.6689e-05  9.8160e-05  4.6840e-05  1.5602e-05  5.1140e-04  5.2542e-03  3.2611e+02  0:01:37  274
    77  7.5951e-03  8.5485e-05  9.6690e-05  4.6271e-05  1.5388e-05  5.0716e-04  5.2323e-03  3.2611e+02  0:01:17  273

  iter  continuity  x-velocity  y-velocity  z-velocity      energy           k     epsilon  outlet-tem     time/iter
    78  7.4824e-03  8.4235e-05  9.5109e-05  4.5635e-05  1.5137e-05  5.0172e-04  5.2056e-03  3.2612e+02  0:01:56  272
    79  7.3664e-03  8.2981e-05  9.3516e-05  4.4915e-05  1.4843e-05  4.9301e-04  5.1619e-03  3.2612e+02  0:01:32  271
    80  7.2484e-03  8.1812e-05  9.2014e-05  4.4030e-05  1.4554e-05  4.8504e-04  5.1296e-03  3.2613e+02  0:02:08  270
    81  7.1111e-03  8.0467e-05  9.0390e-05  4.3255e-05  1.4235e-05  4.7687e-04  5.0918e-03  3.2614e+02  0:01:42  269
    82  6.9712e-03  7.9307e-05  8.8897e-05  4.2337e-05  1.3942e-05  4.6854e-04  5.0470e-03  3.2614e+02  0:01:21  268
    83  6.8348e-03  7.8052e-05  8.7320e-05  4.1519e-05  1.3609e-05  4.5822e-04  4.9804e-03  3.2615e+02  0:01:58  267
    84  6.7116e-03  7.6975e-05  8.5881e-05  4.0512e-05  1.3276e-05  4.4913e-04  4.9103e-03  3.2615e+02  0:01:34  266
    85  6.5878e-03  7.5757e-05  8.4361e-05  3.9588e-05  1.2938e-05  4.3981e-04  4.8391e-03  3.2616e+02  0:01:15  265
    86  6.4706e-03  7.4620e-05  8.3010e-05  3.8634e-05  1.2618e-05  4.3084e-04  4.7660e-03  3.2616e+02  0:01:53  264
    87  6.3540e-03  7.3416e-05  8.1600e-05  3.7762e-05  1.2288e-05  4.2002e-04  4.6760e-03  3.2617e+02  0:01:30  263
    88  6.2443e-03  7.2400e-05  8.0338e-05  3.6682e-05  1.1972e-05  4.1090e-04  4.5886e-03  3.2617e+02  0:02:04  262

  iter  continuity  x-velocity  y-velocity  z-velocity      energy           k     epsilon  outlet-tem     time/iter
    89  6.1401e-03  7.1251e-05  7.8980e-05  3.5783e-05  1.1671e-05  4.0243e-04  4.5063e-03  3.2618e+02  0:01:39  261
    90  6.0350e-03  7.0179e-05  7.7723e-05  3.4940e-05  1.1374e-05  3.9364e-04  4.4215e-03  3.2618e+02  0:01:19  260
    91  5.9281e-03  6.9129e-05  7.6496e-05  3.4115e-05  1.1082e-05  3.8492e-04  4.3356e-03  3.2618e+02  0:01:55  259
    92  5.8272e-03  6.8094e-05  7.5284e-05  3.3320e-05  1.0793e-05  3.7624e-04  4.2480e-03  3.2618e+02  0:01:31  258
    93  5.7281e-03  6.7076e-05  7.4116e-05  3.2536e-05  1.0504e-05  3.6771e-04  4.1636e-03  3.2619e+02  0:01:13  257
    94  5.6328e-03  6.6056e-05  7.2953e-05  3.1788e-05  1.0223e-05  3.5950e-04  4.0823e-03  3.2619e+02  0:01:49  256
    95  5.5377e-03  6.5085e-05  7.1829e-05  3.1056e-05  9.9420e-06  3.5138e-04  4.0043e-03  3.2619e+02  0:01:27  255
    96  5.4477e-03  6.4138e-05  7.0721e-05  3.0342e-05  9.6713e-06  3.4364e-04  3.9306e-03  3.2619e+02  0:02:00  254
    97  5.3565e-03  6.3201e-05  6.9626e-05  2.9668e-05  9.4172e-06  3.3637e-04  3.8611e-03  3.2620e+02  0:01:36  253
    98  5.2686e-03  6.2281e-05  6.8556e-05  2.9027e-05  9.1685e-06  3.2925e-04  3.7981e-03  3.2620e+02  0:01:16  252
    99  5.1833e-03  6.1373e-05  6.7504e-05  2.8380e-05  8.9310e-06  3.2257e-04  3.7408e-03  3.2620e+02  0:01:51  251

  iter  continuity  x-velocity  y-velocity  z-velocity      energy           k     epsilon  outlet-tem     time/iter
   100  5.0951e-03  6.0448e-05  6.6412e-05  2.7789e-05  8.7031e-06  3.1610e-04  3.6855e-03  3.2620e+02  0:01:28  250
   101  5.0112e-03  5.9568e-05  6.5384e-05  2.7207e-05  8.4831e-06  3.0992e-04  3.6311e-03  3.2621e+02  0:01:10  249
   102  4.9315e-03  5.8678e-05  6.4354e-05  2.6633e-05  8.2624e-06  3.0319e-04  3.5781e-03  3.2621e+02  0:01:46  248
   103  4.8610e-03  5.7833e-05  6.3357e-05  2.6015e-05  8.0494e-06  2.9676e-04  3.5305e-03  3.2621e+02  0:01:24  247
   104  4.7891e-03  5.6957e-05  6.2339e-05  2.5440e-05  7.8517e-06  2.9066e-04  3.4884e-03  3.2621e+02  0:01:56  246
   105  4.7174e-03  5.6087e-05  6.1351e-05  2.4897e-05  7.6570e-06  2.8509e-04  3.4482e-03  3.2622e+02  0:01:33  245
   106  4.6459e-03  5.5251e-05  6.0412e-05  2.4353e-05  7.4646e-06  2.7934e-04  3.4062e-03  3.2622e+02  0:01:14  244
   107  4.5745e-03  5.4446e-05  5.9512e-05  2.3768e-05  7.2888e-06  2.7445e-04  3.3676e-03  3.2622e+02  0:01:47  243
   108  4.5028e-03  5.3582e-05  5.8550e-05  2.3238e-05  7.1267e-06  2.6966e-04  3.3343e-03  3.2623e+02  0:01:26  242
   109  4.4275e-03  5.2771e-05  5.7654e-05  2.2729e-05  6.9770e-06  2.6564e-04  3.3004e-03  3.2623e+02  0:01:56  241
   110  4.3553e-03  5.1919e-05  5.6744e-05  2.2290e-05  6.8187e-06  2.6103e-04  3.2640e-03  3.2623e+02  0:01:33  240

  iter  continuity  x-velocity  y-velocity  z-velocity      energy           k     epsilon  outlet-tem     time/iter
   111  4.2905e-03  5.1190e-05  5.5935e-05  2.1698e-05  6.6774e-06  2.5742e-04  3.2302e-03  3.2624e+02  0:01:14  239
   112  4.2239e-03  5.0328e-05  5.5001e-05  2.1223e-05  6.5436e-06  2.5368e-04  3.1979e-03  3.2624e+02  0:01:46  238
   113  4.1557e-03  4.9548e-05  5.4167e-05  2.0737e-05  6.4046e-06  2.4961e-04  3.1653e-03  3.2624e+02  0:01:25  237
   114  4.0949e-03  4.8801e-05  5.3372e-05  2.0236e-05  6.2917e-06  2.4656e-04  3.1327e-03  3.2625e+02  0:01:55  236
   115  4.0234e-03  4.7937e-05  5.2485e-05  1.9961e-05  6.1676e-06  2.4256e-04  3.0959e-03  3.2625e+02  0:01:31  235
   116  3.9608e-03  4.7253e-05  5.1766e-05  1.9416e-05  6.0451e-06  2.3916e-04  3.0593e-03  3.2625e+02  0:01:13  234
   117  3.9061e-03  4.6498e-05  5.0963e-05  1.8959e-05  5.9331e-06  2.3587e-04  3.0291e-03  3.2626e+02  0:01:45  233
   118  3.8475e-03  4.5743e-05  5.0185e-05  1.8578e-05  5.8295e-06  2.3288e-04  3.0058e-03  3.2626e+02  0:01:23  232
   119  3.7881e-03  4.5031e-05  4.9448e-05  1.8225e-05  5.7158e-06  2.2939e-04  2.9844e-03  3.2626e+02  0:01:53  231
   120  3.7368e-03  4.4397e-05  4.8771e-05  1.7781e-05  5.6174e-06  2.2647e-04  2.9683e-03  3.2627e+02  0:02:16  230
   121  3.6795e-03  4.3647e-05  4.7989e-05  1.7448e-05  5.5197e-06  2.2377e-04  2.9541e-03  3.2627e+02  0:01:48  229

  iter  continuity  x-velocity  y-velocity  z-velocity      energy           k     epsilon  outlet-tem     time/iter
   122  3.6224e-03  4.3005e-05  4.7318e-05  1.7104e-05  5.4239e-06  2.2101e-04  2.9356e-03  3.2627e+02  0:01:26  228
   123  3.5668e-03  4.2361e-05  4.6643e-05  1.6753e-05  5.3354e-06  2.1848e-04  2.9144e-03  3.2628e+02  0:01:54  227
   124  3.5102e-03  4.1699e-05  4.5953e-05  1.6467e-05  5.2499e-06  2.1589e-04  2.8898e-03  3.2628e+02  0:01:31  226
   125  3.4560e-03  4.1075e-05  4.5297e-05  1.6173e-05  5.1679e-06  2.1341e-04  2.8597e-03  3.2628e+02  0:01:12  225
   126  3.4033e-03  4.0447e-05  4.4643e-05  1.5909e-05  5.0844e-06  2.1083e-04  2.8270e-03  3.2628e+02  0:01:42  224
   127  3.3548e-03  3.9859e-05  4.4024e-05  1.5599e-05  5.0149e-06  2.0855e-04  2.7922e-03  3.2629e+02  0:01:22  223
   128  3.3053e-03  3.9224e-05  4.3361e-05  1.5409e-05  4.9436e-06  2.0585e-04  2.7569e-03  3.2629e+02  0:01:49  222
   129  3.2574e-03  3.8679e-05  4.2784e-05  1.5119e-05  4.8697e-06  2.0308e-04  2.7188e-03  3.2629e+02  0:01:27  221
   130  3.2076e-03  3.8117e-05  4.2179e-05  1.4853e-05  4.8036e-06  2.0063e-04  2.6791e-03  3.2629e+02  0:01:09  220
   131  3.1603e-03  3.7550e-05  4.1568e-05  1.4650e-05  4.7397e-06  1.9819e-04  2.6395e-03  3.2630e+02  0:01:39  219
   132  3.1142e-03  3.7035e-05  4.1009e-05  1.4424e-05  4.6688e-06  1.9553e-04  2.6030e-03  3.2630e+02  0:01:19  218

  iter  continuity  x-velocity  y-velocity  z-velocity      energy           k     epsilon  outlet-tem     time/iter
   133  3.0734e-03  3.6555e-05  4.0480e-05  1.4151e-05  4.6082e-06  1.9292e-04  2.5695e-03  3.2630e+02  0:01:46  217
   134  3.0305e-03  3.6011e-05  3.9891e-05  1.3955e-05  4.5451e-06  1.9032e-04  2.5403e-03  3.2630e+02  0:01:25  216
   135  2.9902e-03  3.5545e-05  3.9380e-05  1.3740e-05  4.4839e-06  1.8781e-04  2.5113e-03  3.2630e+02  0:01:07  215
   136  2.9517e-03  3.5053e-05  3.8837e-05  1.3555e-05  4.4241e-06  1.8541e-04  2.4810e-03  3.2631e+02  0:01:36  214
   137  2.9127e-03  3.4583e-05  3.8310e-05  1.3375e-05  4.3646e-06  1.8300e-04  2.4470e-03  3.2631e+02  0:01:17  213
   138  2.8740e-03  3.4122e-05  3.7795e-05  1.3173e-05  4.3076e-06  1.8064e-04  2.4126e-03  3.2631e+02  0:01:01  212
   139  2.8352e-03  3.3660e-05  3.7282e-05  1.2992e-05  4.2470e-06  1.7817e-04  2.3807e-03  3.2631e+02  0:01:31  211
   140  2.7986e-03  3.3232e-05  3.6809e-05  1.2787e-05  4.1907e-06  1.7577e-04  2.3508e-03  3.2631e+02  0:01:12  210
   141  2.7616e-03  3.2773e-05  3.6308e-05  1.2631e-05  4.1313e-06  1.7361e-04  2.3249e-03  3.2631e+02  0:01:39  209
   142  2.7265e-03  3.2369e-05  3.5860e-05  1.2434e-05  4.0761e-06  1.7157e-04  2.2999e-03  3.2631e+02  0:01:19  208
   143  2.6914e-03  3.1923e-05  3.5374e-05  1.2282e-05  4.0218e-06  1.6936e-04  2.2751e-03  3.2631e+02  0:01:03  207

  iter  continuity  x-velocity  y-velocity  z-velocity      energy           k     epsilon  outlet-tem     time/iter
   144  2.6577e-03  3.1512e-05  3.4928e-05  1.2107e-05  3.9673e-06  1.6725e-04  2.2508e-03  3.2632e+02  0:01:31  206
   145  2.6242e-03  3.1099e-05  3.4481e-05  1.1930e-05  3.9108e-06  1.6517e-04  2.2293e-03  3.2632e+02  0:01:13  205
   146  2.5903e-03  3.0697e-05  3.4037e-05  1.1753e-05  3.8589e-06  1.6336e-04  2.2095e-03  3.2632e+02  0:01:39  204
   147  2.5586e-03  3.0267e-05  3.3572e-05  1.1617e-05  3.8069e-06  1.6151e-04  2.1882e-03  3.2632e+02  0:01:19  203
   148  2.5265e-03  2.9876e-05  3.3144e-05  1.1451e-05  3.7553e-06  1.5969e-04  2.1653e-03  3.2632e+02  0:01:03  202
   149  2.4970e-03  2.9481e-05  3.2710e-05  1.1284e-05  3.7104e-06  1.5799e-04  2.1393e-03  3.2632e+02  0:01:30  201
   150  2.4650e-03  2.9059e-05  3.2256e-05  1.1195e-05  3.6553e-06  1.5581e-04  2.1116e-03  3.2632e+02  0:01:12  200
   151  2.4369e-03  2.8717e-05  3.1875e-05  1.0977e-05  3.6096e-06  1.5408e-04  2.0822e-03  3.2632e+02  0:00:57  199
   152  2.4070e-03  2.8285e-05  3.1411e-05  1.0894e-05  3.5568e-06  1.5197e-04  2.0538e-03  3.2632e+02  0:01:25  198
   153  2.3778e-03  2.7951e-05  3.1041e-05  1.0692e-05  3.5066e-06  1.5010e-04  2.0257e-03  3.2632e+02  0:01:08  197
   154  2.3494e-03  2.7561e-05  3.0610e-05  1.0551e-05  3.4581e-06  1.4816e-04  2.0002e-03  3.2632e+02  0:01:33  196

  iter  continuity  x-velocity  y-velocity  z-velocity      energy           k     epsilon  outlet-tem     time/iter
   155  2.3201e-03  2.7206e-05  3.0218e-05  1.0411e-05  3.4092e-06  1.4619e-04  1.9760e-03  3.2632e+02  0:01:14  195
   156  2.2901e-03  2.6851e-05  2.9824e-05  1.0272e-05  3.3657e-06  1.4441e-04  1.9516e-03  3.2632e+02  0:00:59  194
   157  2.2574e-03  2.6476e-05  2.9413e-05  1.0200e-05  3.3166e-06  1.4232e-04  1.9254e-03  3.2632e+02  0:01:26  193
   158  2.2290e-03  2.6159e-05  2.9057e-05  1.0008e-05  3.2732e-06  1.4046e-04  1.8976e-03  3.2632e+02  0:01:08  192
   159  2.2000e-03  2.5785e-05  2.8643e-05  9.9005e-06  3.2278e-06  1.3851e-04  1.8721e-03  3.2632e+02  0:01:32  191
   160  2.1722e-03  2.5468e-05  2.8286e-05  9.7453e-06  3.1861e-06  1.3679e-04  1.8484e-03  3.2632e+02  0:01:14  190
   161  2.1442e-03  2.5112e-05  2.7892e-05  9.6413e-06  3.1407e-06  1.3502e-04  1.8269e-03  3.2632e+02  0:00:58  189
   162  2.1160e-03  2.4796e-05  2.7539e-05  9.5025e-06  3.0960e-06  1.3338e-04  1.8070e-03  3.2632e+02  0:01:24  188
   163  2.0897e-03  2.4472e-05  2.7175e-05  9.3683e-06  3.0512e-06  1.3173e-04  1.7887e-03  3.2632e+02  0:01:07  187
   164  2.0640e-03  2.4160e-05  2.6826e-05  9.2367e-06  3.0115e-06  1.3021e-04  1.7711e-03  3.2633e+02  0:00:53  186
   165  2.0368e-03  2.3827e-05  2.6463e-05  9.1372e-06  2.9726e-06  1.2855e-04  1.7507e-03  3.2633e+02  0:01:19  185

  iter  continuity  x-velocity  y-velocity  z-velocity      energy           k     epsilon  outlet-tem     time/iter
   166  2.0085e-03  2.3509e-05  2.6115e-05  9.0464e-06  2.9272e-06  1.2676e-04  1.7289e-03  3.2633e+02  0:01:03  184
   167  1.9853e-03  2.3230e-05  2.5801e-05  8.8758e-06  2.8869e-06  1.2518e-04  1.7074e-03  3.2633e+02  0:01:27  183
   168  1.9608e-03  2.2892e-05  2.5428e-05  8.7645e-06  2.8444e-06  1.2350e-04  1.6883e-03  3.2633e+02  0:01:09  182
   169  1.9374e-03  2.2616e-05  2.5119e-05  8.6324e-06  2.8104e-06  1.2203e-04  1.6682e-03  3.2633e+02  0:00:55  181
   170  1.9106e-03  2.2280e-05  2.4754e-05  8.5864e-06  2.7708e-06  1.2010e-04  1.6461e-03  3.2633e+02  0:01:20  180
   171  1.8858e-03  2.2015e-05  2.4460e-05  8.4218e-06  2.7359e-06  1.1854e-04  1.6216e-03  3.2633e+02  0:01:03  179
   172  1.8616e-03  2.1686e-05  2.4099e-05  8.3539e-06  2.6949e-06  1.1675e-04  1.5982e-03  3.2633e+02  0:00:50  178
   173  1.8394e-03  2.1432e-05  2.3810e-05  8.1895e-06  2.6608e-06  1.1528e-04  1.5750e-03  3.2632e+02  0:01:16  177
   174  1.8149e-03  2.1101e-05  2.3442e-05  8.1310e-06  2.6231e-06  1.1356e-04  1.5524e-03  3.2632e+02  0:01:00  176
   175  1.7910e-03  2.0838e-05  2.3145e-05  7.9969e-06  2.5829e-06  1.1186e-04  1.5307e-03  3.2632e+02  0:01:23  175
   176  1.7700e-03  2.0582e-05  2.2844e-05  7.8553e-06  2.5489e-06  1.1033e-04  1.5123e-03  3.2632e+02  0:01:06  174

  iter  continuity  x-velocity  y-velocity  z-velocity      energy           k     epsilon  outlet-tem     time/iter
   177  1.7464e-03  2.0268e-05  2.2499e-05  7.7668e-06  2.5155e-06  1.0885e-04  1.4962e-03  3.2632e+02  0:00:52  173
   178  1.7222e-03  2.0008e-05  2.2209e-05  7.6676e-06  2.4771e-06  1.0721e-04  1.4785e-03  3.2632e+02  0:01:16  172
   179  1.7016e-03  1.9760e-05  2.1922e-05  7.5306e-06  2.4479e-06  1.0580e-04  1.4590e-03  3.2632e+02  0:01:01  171
   180  1.6772e-03  1.9448e-05  2.1577e-05  7.4834e-06  2.4130e-06  1.0415e-04  1.4389e-03  3.2632e+02  0:00:48  170
   181  1.6550e-03  1.9220e-05  2.1318e-05  7.3320e-06  2.3810e-06  1.0265e-04  1.4173e-03  3.2632e+02  0:01:12  169
   182  1.6335e-03  1.8937e-05  2.1002e-05  7.2374e-06  2.3491e-06  1.0112e-04  1.3962e-03  3.2632e+02  0:00:57  168
   183  1.6113e-03  1.8682e-05  2.0717e-05  7.1428e-06  2.3157e-06  9.9588e-05  1.3750e-03  3.2632e+02  0:01:19  167
   184  1.5899e-03  1.8427e-05  2.0433e-05  7.0316e-06  2.2810e-06  9.8098e-05  1.3553e-03  3.2632e+02  0:01:03  166
   185  1.5697e-03  1.8187e-05  2.0159e-05  6.9183e-06  2.2502e-06  9.6742e-05  1.3371e-03  3.2632e+02  0:00:50  165
   186  1.5476e-03  1.7924e-05  1.9867e-05  6.8303e-06  2.2188e-06  9.5313e-05  1.3193e-03  3.2632e+02  0:01:13  164
   187  1.5248e-03  1.7690e-05  1.9607e-05  6.7316e-06  2.1872e-06  9.3868e-05  1.3003e-03  3.2632e+02  0:00:58  163

  iter  continuity  x-velocity  y-velocity  z-velocity      energy           k     epsilon  outlet-tem     time/iter
   188  1.5027e-03  1.7450e-05  1.9337e-05  6.6315e-06  2.1565e-06  9.2433e-05  1.2811e-03  3.2632e+02  0:01:18  162
   189  1.4818e-03  1.7211e-05  1.9067e-05  6.5392e-06  2.1252e-06  9.1006e-05  1.2624e-03  3.2632e+02  0:01:02  161
   190  1.4616e-03  1.6986e-05  1.8813e-05  6.4382e-06  2.0965e-06  8.9645e-05  1.2441e-03  3.2632e+02  0:00:49  160
   191  1.4409e-03  1.6748e-05  1.8548e-05  6.3561e-06  2.0663e-06  8.8223e-05  1.2260e-03  3.2632e+02  0:01:11  159
   192  1.4217e-03  1.6535e-05  1.8310e-05  6.2566e-06  2.0380e-06  8.6902e-05  1.2081e-03  3.2632e+02  0:00:57  158
   193  1.4026e-03  1.6306e-05  1.8054e-05  6.1716e-06  2.0103e-06  8.5517e-05  1.1907e-03  3.2632e+02  0:00:45  157
   194  1.3835e-03  1.6088e-05  1.7812e-05  6.0879e-06  1.9843e-06  8.4189e-05  1.1727e-03  3.2632e+02  0:01:07  156
   195  1.3639e-03  1.5864e-05  1.7564e-05  6.0207e-06  1.9566e-06  8.2879e-05  1.1549e-03  3.2632e+02  0:00:53  155
   196  1.3456e-03  1.5658e-05  1.7333e-05  5.9229e-06  1.9321e-06  8.1751e-05  1.1367e-03  3.2632e+02  0:01:13  154
   197  1.3271e-03  1.5432e-05  1.7082e-05  5.8561e-06  1.9056e-06  8.0480e-05  1.1189e-03  3.2632e+02  0:00:58  153
   198  1.3091e-03  1.5237e-05  1.6860e-05  5.7576e-06  1.8817e-06  7.9298e-05  1.1011e-03  3.2632e+02  0:00:46  152

  iter  continuity  x-velocity  y-velocity  z-velocity      energy           k     epsilon  outlet-tem     time/iter
   199  1.2903e-03  1.5012e-05  1.6609e-05  5.7009e-06  1.8564e-06  7.8056e-05  1.0835e-03  3.2632e+02  0:01:07  151
   200  1.2722e-03  1.4815e-05  1.6385e-05  5.6110e-06  1.8307e-06  7.6848e-05  1.0653e-03  3.2632e+02  0:00:53  150
   201  1.2547e-03  1.4606e-05  1.6149e-05  5.5330e-06  1.8058e-06  7.5709e-05  1.0474e-03  3.2632e+02  0:00:42  149
   202  1.2371e-03  1.4399e-05  1.5917e-05  5.4695e-06  1.7814e-06  7.4473e-05  1.0292e-03  3.2632e+02  0:01:03  148
   203  1.2198e-03  1.4201e-05  1.5694e-05  5.3852e-06  1.7568e-06  7.3234e-05  1.0104e-03  3.2632e+02  0:00:50  147
   204  1.2026e-03  1.3999e-05  1.5469e-05  5.3057e-06  1.7298e-06  7.1907e-05  9.9254e-04  3.2632e+02  0:01:09  146
   205  1.1868e-03  1.3818e-05  1.5262e-05  5.2063e-06  1.7033e-06  7.0717e-05  9.7742e-04  3.2632e+02  0:00:55  145
   206  1.1708e-03  1.3624e-05  1.5044e-05  5.1262e-06  1.6770e-06  6.9652e-05  9.6468e-04  3.2632e+02  0:00:44  144
   207  1.1544e-03  1.3443e-05  1.4841e-05  5.0477e-06  1.6512e-06  6.8638e-05  9.5296e-04  3.2632e+02  0:01:03  143
   208  1.1384e-03  1.3262e-05  1.4639e-05  4.9718e-06  1.6263e-06  6.7639e-05  9.4133e-04  3.2632e+02  0:00:50  142
   209  1.1228e-03  1.3084e-05  1.4439e-05  4.8989e-06  1.6023e-06  6.6686e-05  9.2910e-04  3.2632e+02  0:01:08  141

  iter  continuity  x-velocity  y-velocity  z-velocity      energy           k     epsilon  outlet-tem     time/iter
   210  1.1069e-03  1.2905e-05  1.4239e-05  4.8310e-06  1.5764e-06  6.5632e-05  9.1635e-04  3.2632e+02  0:00:54  140
   211  1.0919e-03  1.2739e-05  1.4050e-05  4.7491e-06  1.5524e-06  6.4645e-05  9.0385e-04  3.2632e+02  0:01:11  139
   212  1.0767e-03  1.2558e-05  1.3848e-05  4.6820e-06  1.5288e-06  6.3654e-05  8.9186e-04  3.2632e+02  0:00:56  138
   213  1.0608e-03  1.2388e-05  1.3659e-05  4.6163e-06  1.5067e-06  6.2690e-05  8.7932e-04  3.2632e+02  0:01:12  137
   214  1.0456e-03  1.2213e-05  1.3466e-05  4.5546e-06  1.4843e-06  6.1705e-05  8.6604e-04  3.2632e+02  0:00:57  136
   215  1.0311e-03  1.2044e-05  1.3279e-05  4.4852e-06  1.4620e-06  6.0733e-05  8.5240e-04  3.2632e+02  0:00:45  135
   216  1.0167e-03  1.1873e-05  1.3089e-05  4.4175e-06  1.4393e-06  5.9775e-05  8.3926e-04  3.2632e+02  0:01:03  134
   217  1.0025e-03  1.1710e-05  1.2906e-05  4.3454e-06  1.4170e-06  5.8850e-05  8.2677e-04  3.2632e+02  0:00:50  133
   218  9.8846e-04  1.1545e-05  1.2721e-05  4.2794e-06  1.3952e-06  5.7940e-05  8.1481e-04  3.2632e+02  0:00:40  132
   219  9.7409e-04  1.1385e-05  1.2542e-05  4.2135e-06  1.3726e-06  5.7071e-05  8.0320e-04  3.2632e+02  0:00:58  131
   220  9.6061e-04  1.1234e-05  1.2371e-05  4.1420e-06  1.3508e-06  5.6224e-05  7.9233e-04  3.2632e+02  0:00:46  130

  iter  continuity  x-velocity  y-velocity  z-velocity      energy           k     epsilon  outlet-tem     time/iter
   221  9.4697e-04  1.1075e-05  1.2194e-05  4.0790e-06  1.3296e-06  5.5364e-05  7.8206e-04  3.2632e+02  0:01:02  129
   222  9.3323e-04  1.0923e-05  1.2026e-05  4.0171e-06  1.3089e-06  5.4502e-05  7.7171e-04  3.2632e+02  0:00:49  128
   223  9.1975e-04  1.0772e-05  1.1858e-05  3.9569e-06  1.2881e-06  5.3638e-05  7.6142e-04  3.2632e+02  0:01:05  127
   224  9.0657e-04  1.0625e-05  1.1694e-05  3.8942e-06  1.2681e-06  5.2822e-05  7.5122e-04  3.2632e+02  0:00:51  126
   225  8.9340e-04  1.0476e-05  1.1528e-05  3.8358e-06  1.2483e-06  5.2027e-05  7.4124e-04  3.2632e+02  0:00:41  125
   226  8.8036e-04  1.0332e-05  1.1367e-05  3.7780e-06  1.2287e-06  5.1241e-05  7.3137e-04  3.2632e+02  0:00:57  124
   227  8.6768e-04  1.0191e-05  1.1210e-05  3.7182e-06  1.2114e-06  5.0494e-05  7.2121e-04  3.2632e+02  0:00:45  123
   228  8.5453e-04  1.0041e-05  1.1044e-05  3.6763e-06  1.1935e-06  4.9691e-05  7.1039e-04  3.2632e+02  0:01:00  122
   229  8.4184e-04  9.9035e-06  1.0892e-05  3.6177e-06  1.1752e-06  4.8889e-05  6.9897e-04  3.2632e+02  0:00:48  121
   230  8.2998e-04  9.7625e-06  1.0736e-05  3.5575e-06  1.1579e-06  4.8125e-05  6.8782e-04  3.2632e+02  0:00:38  120
   231  8.1804e-04  9.6213e-06  1.0580e-05  3.5057e-06  1.1407e-06  4.7362e-05  6.7725e-04  3.2632e+02  0:00:54  119

  iter  continuity  x-velocity  y-velocity  z-velocity      energy           k     epsilon  outlet-tem     time/iter
   232  8.0617e-04  9.4861e-06  1.0430e-05  3.4525e-06  1.1255e-06  4.6656e-05  6.6657e-04  3.2632e+02  0:00:43  118
   233  7.9396e-04  9.3419e-06  1.0272e-05  3.4239e-06  1.1091e-06  4.5869e-05  6.5522e-04  3.2632e+02  0:00:57  117
   234  7.8228e-04  9.2122e-06  1.0127e-05  3.3639e-06  1.0924e-06  4.5066e-05  6.4359e-04  3.2632e+02  0:00:45  116
   235  7.7121e-04  9.0783e-06  9.9768e-06  3.3041e-06  1.0759e-06  4.4318e-05  6.3244e-04  3.2632e+02  0:00:36  115
   236  7.6000e-04  8.9458e-06  9.8287e-06  3.2534e-06  1.0596e-06  4.3579e-05  6.2197e-04  3.2632e+02  0:00:51  114
   237  7.4914e-04  8.8186e-06  9.6859e-06  3.2019e-06  1.0427e-06  4.2869e-05  6.1251e-04  3.2632e+02  0:00:41  113
   238  7.3887e-04  8.6984e-06  9.5504e-06  3.1453e-06  1.0268e-06  4.2210e-05  6.0422e-04  3.2632e+02  0:00:55  112
   239  7.2846e-04  8.5742e-06  9.4117e-06  3.0962e-06  1.0118e-06  4.1580e-05  5.9663e-04  3.2632e+02  0:00:43  111
   240  7.1770e-04  8.4491e-06  9.2733e-06  3.0583e-06  9.9477e-07  4.0920e-05  5.8920e-04  3.2632e+02  0:00:34  110
!  240 solution is converged
Performance profile written to C:/Users/Dell/AppData/Local/Temp/_ALI-DESKTOP_2568/run-information.txt
Performance profile written to C:/Users/Dell/AppData/Local/Temp/_ALI-DESKTOP_2568/run-information.txt

number tracked = 204, escaped = 204

Writing "C:/Users/Dell/AppData/Local/Temp/_ALI-DESKTOP_2568/scene-lic-temp_scene.avz" ...
Done.

Writing "C:/Users/Dell/AppData/Local/Temp/_ALI-DESKTOP_2568/scene-lic-vel_scene.avz" ...
Done.

Writing "C:/Users/Dell/AppData/Local/Temp/_ALI-DESKTOP_2568/scene-vectors_scene.avz" ...
Done.

number tracked = 204, escaped = 204

number tracked = 204, escaped = 204

Writing "C:/Users/Dell/AppData/Local/Temp/_ALI-DESKTOP_2568/scene-pathlines-temp_scene.avz" ...
Done.

Writing "C:/Users/Dell/AppData/Local/Temp/_ALI-DESKTOP_2568/scene-vel-inlet-plane_scene.avz" ...
Done.

Writing "C:/Users/Dell/AppData/Local/Temp/_ALI-DESKTOP_2568/scene-temp-walls_scene.avz" ...
Done.

Writing "C:/Users/Dell/AppData/Local/Temp/_ALI-DESKTOP_2568/scene-temp-inlet-plane_scene.avz" ...
Done.

Writing to ALI-DESKTOP:"D:/HPC Workshop/Ansys Cases/parametric_mixer/parametric_ansys_project/Static_Mixer.cffdb\Static_Mixer-Solve\DP4\Static_Mixer.cas.h5" in NODE0 mode and compression level 1 ...
Grouping cells for Laplace smoothing ...
       22771 cells,     1 zone  ...
      119140 faces,     5 zones ...
       82247 nodes,     1 zone  ...
  Done.
Done.

Writing to ALI-DESKTOP:"D:/HPC Workshop/Ansys Cases/parametric_mixer/parametric_ansys_project/Static_Mixer.cffdb\Static_Mixer-Solve\DP4\Static_Mixer.dat.h5" in NODE0 mode and compression level 1 ...
  Writing results.
Done.
