Auto-Transcript Start Time:  18:14:03, 11 Aug 2024 Pakistan Standard Time 
Current Directory: "D:\HPC Workshop\Ansys Cases\parametric_mixer\parametric_ansys_project"

              Welcome to ANSYS Fluent 2024 R1

              Copyright 1987-2024 ANSYS, Inc. All Rights Reserved.
              Unauthorized use, distribution or duplication is prohibited.
              This product is subject to U.S. laws governing export and re-export.
              For full Legal Notice, see documentation.

Build Time: Nov 22 2023 10:31:01 EST  Build Id: 10184  
 
Connected License Server List:	1055@localhost
Host spawning Node 0 on machine "ALI-DESKTOP" (win64).

-------------------------------------------------------------------------------
ID    Hostname     Core  O.S.         PID    Vendor                          
-------------------------------------------------------------------------------
n3    ALI-DESKTOP  4/8  Windows-x64  23304  Intel(R) Core(TM) i7-8665U      
n2    ALI-DESKTOP  3/8  Windows-x64  24444  Intel(R) Core(TM) i7-8665U      
n1    ALI-DESKTOP  2/8  Windows-x64  1988   Intel(R) Core(TM) i7-8665U      
n0*   ALI-DESKTOP  1/8  Windows-x64  8848   Intel(R) Core(TM) i7-8665U      
host  ALI-DESKTOP       Windows-x64  23228  Intel(R) Core(TM) i7-8665U      

MPI Option Selected: intel
Selected system interconnect: default
-------------------------------------------------------------------------------

Cleanup script file is D:\\HPC Workshop\\Ansys Cases\\parametric_mixer\\parametric_ansys_project\\cleanup-fluent-ALI-DESKTOP-23228.bat

Posting ANSYS Product Improvement Program startup data
Done.

> (cx-gui-do cx-activate-item "Key Behavioral Changes*PanelButtons*PushButton1(OK)")
(cx-gui-do cx-set-list-tree-selections "NavigationPane*Frame2*Table1*List_Tree2" (list ))
(cx-gui-do cx-activate-item "MenuBar*ReadSubMenu*Case & Data...")
(cx-gui-do cx-set-file-dialog-entries "Select File" '( "D:/HPC Workshop/Ansys Cases/parametric_mixer/Static_Mixer.cas.h5") "CFF Case Files (*.cas.h5 )")
Fast-loading "D:\software\ANSYS Inc\v241\fluent\fluent24.1.0\\addons\afd\lib\hdfio.bin"
Done.
Multicore SMT processors detected. Processor affinity set!

Reading from ALI-DESKTOP:"D:/HPC Workshop/Ansys Cases/parametric_mixer/Static_Mixer.cas.h5" in NODE0 mode ...
  Reading mesh ...
       22771 cells,     1 cell zone  ...
          22771 polyhedra cells,  zone id: 97
      119140 faces,     5 face zones ...
         114959 polygonal interior faces,  zone id: 96
           3873 polygonal wall faces,  zone id: 20
            104 polygonal pressure-outlet faces,  zone id: 19
            103 polygonal velocity-inlet faces,  zone id: 18
            101 polygonal velocity-inlet faces,  zone id: 17
       82247 nodes,     1 node zone  ...
  Done.


Building...
     mesh
	distributing mesh
		parts....,
		faces....,
		nodes....,
		cells....,
        bandwidth reduction using Reverse Cuthill-McKee: 5673/485 = 11.6969
     materials,
     interface,
     domains,
	mixture
     zones,
	interior--fluid
	wall
	outlet
	inlet2
	inlet1
	fluid
     parallel,
Done.

Preparing mesh for display...
Done.

Reading from ALI-DESKTOP:"D:/HPC Workshop/Ansys Cases/parametric_mixer/Static_Mixer.dat.h5" in NODE0 mode ...


  Reading results.
Parallel variables...
Done.
(cx-use-window-id 51)
(cx-set-camera-relative '(-0.0277398 -0.00276534 -0.00775465) '(0 0 0) '(0.0576628 -1.14097 -0.284926) 0 0)
(cx-use-window-id 51)
(cx-set-camera-relative '(0.0069417 0.00610283 0.00041642) '(0 0 0) '(-0.0655635 0.304846 -0.066779) 0 0)
(cx-use-window-id 51)
(cx-set-camera-relative '(0.000275024 -0.00424526 -0.0157033) '(0 0 0) '(0.391085 -0.571863 0.148047) 0 0)
(cx-use-window-id 51)
(cx-set-camera-relative '(-0.00556311 0.00036321 0.0107675) '(0 0 0) '(-0.0831293 0.3818 -0.222749) 0 0)
(cx-gui-do cx-set-list-tree-selections "NavigationPane*Frame2*Table1*List_Tree2" (list ))
(cx-gui-do cx-set-list-tree-selections "NavigationPane*Frame2*Table1*List_Tree2" (list "Results|Graphics|Contours|contour-velocity"))
(cx-gui-do cx-set-list-tree-selections "NavigationPane*Frame2*Table1*List_Tree2" (list "Results|Graphics|Contours|contour-velocity"))
(cx-gui-do cx-set-list-tree-selections "NavigationPane*Frame2*Table1*List_Tree2" (list "Results|Graphics|Contours|contour-velocity"))
(cx-gui-do cx-activate-item "NavigationPane*Frame2*Table1*List_Tree2")
(cx-gui-do cx-set-list-tree-selections "NavigationPane*Frame2*Table1*List_Tree2" (list "Results|Graphics|Contours|contour-velocity"))
(cx-gui-do cx-activate-item "Contours*PanelButtons*PushButton1(OK)")
(cx-gui-do cx-activate-item "Contours*PanelButtons*PushButton2(Cancel)")
(cx-gui-do cx-set-list-tree-selections "NavigationPane*Frame2*Table1*List_Tree2" (list "Results|Graphics|Contours|contour-temp-inlet-plane"))
(cx-gui-do cx-set-list-tree-selections "NavigationPane*Frame2*Table1*List_Tree2" (list "Results|Graphics|Contours|contour-temp-inlet-plane"))
(cx-gui-do cx-activate-item "NavigationPane*Frame2*Table1*List_Tree2")
(cx-gui-do cx-set-list-tree-selections "NavigationPane*Frame2*Table1*List_Tree2" (list "Results|Graphics|Contours|contour-temp-inlet-plane"))
(cx-gui-do cx-activate-item "Contours*PanelButtons*PushButton1(OK)")
(cx-gui-do cx-activate-item "Contours*PanelButtons*PushButton2(Cancel)")
(cx-gui-do cx-set-list-tree-selections "NavigationPane*Frame2*Table1*List_Tree2" (list "Results|Graphics|Contours|contour-temp-out"))
(cx-gui-do cx-set-list-tree-selections "NavigationPane*Frame2*Table1*List_Tree2" (list "Results|Graphics|Contours|contour-temp-out"))
(cx-gui-do cx-activate-item "NavigationPane*Frame2*Table1*List_Tree2")
(cx-gui-do cx-set-list-tree-selections "NavigationPane*Frame2*Table1*List_Tree2" (list "Results|Graphics|Contours|contour-temp-out"))
(cx-gui-do cx-activate-item "Contours*PanelButtons*PushButton1(OK)")
(cx-gui-do cx-activate-item "Contours*PanelButtons*PushButton2(Cancel)")
(cx-gui-do cx-set-list-tree-selections "NavigationPane*Frame2*Table1*List_Tree2" (list "Results|Graphics|Contours|contour-temp-walls"))
(cx-gui-do cx-set-list-tree-selections "NavigationPane*Frame2*Table1*List_Tree2" (list "Results|Graphics|Contours|contour-temp-walls"))
(cx-gui-do cx-activate-item "NavigationPane*Frame2*Table1*List_Tree2")
(cx-gui-do cx-set-list-tree-selections "NavigationPane*Frame2*Table1*List_Tree2" (list "Results|Graphics|Contours|contour-temp-walls"))
(cx-gui-do cx-activate-item "Contours*PanelButtons*PushButton1(OK)")
(cx-gui-do cx-activate-item "Contours*PanelButtons*PushButton2(Cancel)")
(cx-use-window-id 51)
(cx-set-camera-relative '(0.00109895 -0.00354045 0.0179414) '(0 0 0) '(0.670551 -0.367504 -0.11938) 0 0)
(cx-use-window-id 51)
(cx-set-camera-relative '(0.00178155 0.00342411 -0.0123089) '(0 0 0) '(-0.650147 -0.126871 0.0766831) 0 0)
(cx-gui-do cx-set-list-tree-selections "NavigationPane*Frame2*Table1*List_Tree2" (list "Setup|Boundary Conditions|Inlet|inlet1 (velocity-inlet, id=17)"))
(cx-gui-do cx-set-list-tree-selections "NavigationPane*Frame2*Table1*List_Tree2" (list "Setup|Boundary Conditions|Inlet|inlet1 (velocity-inlet, id=17)"))
(cx-gui-do cx-activate-item "NavigationPane*Frame2*Table1*List_Tree2")
(cx-gui-do cx-set-list-tree-selections "NavigationPane*Frame2*Table1*List_Tree2" (list "Setup|Boundary Conditions|Inlet|inlet1 (velocity-inlet, id=17)"))
(cx-gui-do cx-activate-tab-index "Velocity Inlet*Frame2*Frame2" 0)
(cx-gui-do cx-activate-tab-index "Velocity Inlet*Frame2*Frame2" 1)
(cx-gui-do cx-activate-tab-index "Velocity Inlet*Frame2*Frame2" 0)
(cx-gui-do cx-activate-tab-index "Velocity Inlet*Frame2*Frame2" 2)
(cx-gui-do cx-activate-tab-index "Velocity Inlet*Frame2*Frame2" 0)
(cx-gui-do cx-activate-tab-index "Velocity Inlet*Frame2*Frame2" 3)
(cx-gui-do cx-activate-tab-index "Velocity Inlet*Frame2*Frame2" 0)
(cx-gui-do cx-activate-tab-index "Velocity Inlet*Frame2*Frame2" 4)
(cx-gui-do cx-activate-tab-index "Velocity Inlet*Frame2*Frame2" 0)
(cx-gui-do cx-activate-tab-index "Velocity Inlet*Frame2*Frame2" 5)
(cx-gui-do cx-activate-tab-index "Velocity Inlet*Frame2*Frame2" 0)
(cx-gui-do cx-activate-tab-index "Velocity Inlet*Frame2*Frame2" 6)
(cx-gui-do cx-activate-tab-index "Velocity Inlet*Frame2*Frame2" 0)
(cx-gui-do cx-activate-tab-index "Velocity Inlet*Frame2*Frame2" 7)
(cx-gui-do cx-activate-tab-index "Velocity Inlet*Frame2*Frame2" 0)
(cx-gui-do cx-activate-tab-index "Velocity Inlet*Frame2*Frame2" 8)
(cx-gui-do cx-activate-tab-index "Velocity Inlet*Frame2*Frame2" 0)
(cx-gui-do cx-activate-tab-index "Velocity Inlet*Frame2*Frame2" 1)
(cx-gui-do cx-set-list-tree-selections "NavigationPane*Frame2*Table1*List_Tree2" (list "Setup|Boundary Conditions|Inlet|inlet2 (velocity-inlet, id=18)"))
(cx-gui-do cx-set-list-tree-selections "NavigationPane*Frame2*Table1*List_Tree2" (list "Setup|Boundary Conditions|Inlet|inlet2 (velocity-inlet, id=18)"))
(cx-gui-do cx-activate-item "NavigationPane*Frame2*Table1*List_Tree2")
(cx-gui-do cx-set-list-tree-selections "NavigationPane*Frame2*Table1*List_Tree2" (list "Setup|Boundary Conditions|Inlet|inlet2 (velocity-inlet, id=18)"))
(cx-gui-do cx-activate-tab-index "Velocity Inlet*Frame2*Frame2" 0)
(cx-gui-do cx-activate-tab-index "Velocity Inlet*Frame2*Frame2" 1)
(cx-gui-do cx-activate-tab-index "Velocity Inlet*Frame2*Frame2" 0)
(cx-gui-do cx-activate-tab-index "Velocity Inlet*Frame2*Frame2" 2)
(cx-gui-do cx-activate-tab-index "Velocity Inlet*Frame2*Frame2" 0)
(cx-gui-do cx-activate-tab-index "Velocity Inlet*Frame2*Frame2" 3)
(cx-gui-do cx-activate-tab-index "Velocity Inlet*Frame2*Frame2" 0)
(cx-gui-do cx-activate-tab-index "Velocity Inlet*Frame2*Frame2" 4)
(cx-gui-do cx-activate-tab-index "Velocity Inlet*Frame2*Frame2" 0)
(cx-gui-do cx-activate-tab-index "Velocity Inlet*Frame2*Frame2" 5)
(cx-gui-do cx-activate-tab-index "Velocity Inlet*Frame2*Frame2" 0)
(cx-gui-do cx-activate-tab-index "Velocity Inlet*Frame2*Frame2" 6)
(cx-gui-do cx-activate-tab-index "Velocity Inlet*Frame2*Frame2" 0)
(cx-gui-do cx-activate-tab-index "Velocity Inlet*Frame2*Frame2" 7)
(cx-gui-do cx-activate-tab-index "Velocity Inlet*Frame2*Frame2" 0)
(cx-gui-do cx-activate-tab-index "Velocity Inlet*Frame2*Frame2" 8)
(cx-gui-do cx-activate-tab-index "Velocity Inlet*Frame2*Frame2" 0)
(cx-gui-do cx-activate-tab-index "Velocity Inlet*Frame2*Frame2" 1)
(cx-gui-do cx-activate-item "Velocity Inlet*PanelButtons*PushButton2(Cancel)")
(cx-gui-do cx-activate-item "Velocity Inlet*PanelButtons*PushButton2(Cancel)")
(cx-gui-do cx-set-list-tree-selections "NavigationPane*Frame2*Table1*List_Tree2" (list "Setup|Cell Zone Conditions|Fluid"))
(cx-gui-do cx-set-list-tree-selections "NavigationPane*Frame2*Table1*List_Tree2" (list "Setup|Cell Zone Conditions|Fluid|fluid (fluid, id=97)"))
(cx-gui-do cx-set-list-tree-selections "NavigationPane*Frame2*Table1*List_Tree2" (list "Setup|Named Expressions|inlet1_temp"))
(cx-gui-do cx-set-list-tree-selections "NavigationPane*Frame2*Table1*List_Tree2" (list "Setup|Named Expressions|inlet1_temp"))
(cx-gui-do cx-activate-item "NavigationPane*Frame2*Table1*List_Tree2")
(cx-gui-do cx-set-list-tree-selections "NavigationPane*Frame2*Table1*List_Tree2" (list "Setup|Named Expressions|inlet1_temp"))
(cx-gui-do cx-activate-tab-index "Expression*Table1*Frame1" 0)
(cx-gui-do cx-activate-tab-index "Expression*Table1*Frame1" 1)
(cx-gui-do cx-activate-tab-index "Expression*Table1*Frame1" 0)
(cx-gui-do cx-set-expression-entry "Parameter Expression*Table1*ExpressionEntry3(Definition)" '("300 [K]" . 1))
(cx-gui-do cx-set-expression-entry "Parameter Expression*Table1*ExpressionEntry3(Definition)" '("300 [K]" . 1))
(cx-gui-do cx-set-expression-entry "Parameter Expression*Table1*ExpressionEntry3(Definition)" '("300 [K]" . 1))
(cx-gui-do cx-set-expression-entry "Parameter Expression*Table1*ExpressionEntry3(Definition)" '("300 [K]" . 1))
(cx-gui-do cx-activate-item "Parameter Expression*PanelButtons*PushButton2(Cancel)")
(cx-gui-do cx-set-list-tree-selections "NavigationPane*Frame2*Table1*List_Tree2" (list "Setup|Named Expressions|inlet1_vel"))
(cx-gui-do cx-set-list-tree-selections "NavigationPane*Frame2*Table1*List_Tree2" (list "Setup|Named Expressions|inlet1_vel"))
(cx-gui-do cx-activate-item "NavigationPane*Frame2*Table1*List_Tree2")
(cx-gui-do cx-set-list-tree-selections "NavigationPane*Frame2*Table1*List_Tree2" (list "Setup|Named Expressions|inlet1_vel"))
(cx-gui-do cx-set-expression-entry "Parameter Expression*Table1*ExpressionEntry3(Definition)" '("5 [m/s]" . 1))
(cx-gui-do cx-activate-item "Parameter Expression*PanelButtons*PushButton2(Cancel)")
(cx-gui-do cx-set-list-tree-selections "NavigationPane*Frame2*Table1*List_Tree2" (list "Setup|Named Expressions|inlet2_temp"))
(cx-gui-do cx-set-list-tree-selections "NavigationPane*Frame2*Table1*List_Tree2" (list "Setup|Named Expressions|inlet2_temp"))
(cx-gui-do cx-activate-item "NavigationPane*Frame2*Table1*List_Tree2")
(cx-gui-do cx-set-list-tree-selections "NavigationPane*Frame2*Table1*List_Tree2" (list "Setup|Named Expressions|inlet2_temp"))
(cx-gui-do cx-set-expression-entry "Parameter Expression*Table1*ExpressionEntry3(Definition)" '("350 [K]" . 1))
(cx-gui-do cx-activate-item "Parameter Expression*PanelButtons*PushButton2(Cancel)")
(cx-gui-do cx-set-list-tree-selections "NavigationPane*Frame2*Table1*List_Tree2" (list "Setup|Named Expressions|inlet2_vel"))
(cx-gui-do cx-set-list-tree-selections "NavigationPane*Frame2*Table1*List_Tree2" (list "Setup|Named Expressions|inlet2_vel"))
(cx-gui-do cx-activate-item "NavigationPane*Frame2*Table1*List_Tree2")
(cx-gui-do cx-set-list-tree-selections "NavigationPane*Frame2*Table1*List_Tree2" (list "Setup|Named Expressions|inlet2_vel"))
(cx-gui-do cx-set-expression-entry "Parameter Expression*Table1*ExpressionEntry3(Definition)" '("10 [m/s]" . 1))
(cx-gui-do cx-activate-item "Parameter Expression*PanelButtons*PushButton2(Cancel)")
(cx-gui-do cx-set-list-tree-selections "NavigationPane*Frame2*Table1*List_Tree2" (list "Setup|Named Expressions|inlet2_vel"))
(cx-gui-do cx-activate-item "Ribbon*Frame1*Frame10(Parametric)*Table1*Table3(Study)*PushButton1(Initialize)")
(cx-gui-do cx-activate-item "Question*OK")
(cx-gui-do cx-set-file-dialog-entries "Select File" '( "D:/HPC Workshop/Ansys Cases/parametric_mixer/parametric_ansys_project/Static_Mixer.flprj") "Project files (*.flprj )")

Writing to ALI-DESKTOP:"D:/HPC Workshop/Ansys Cases/parametric_mixer/parametric_ansys_project/Static_Mixer.cffdb\Static_Mixer-Solve\Static_Mixer.cas.h5" in NODE0 mode and compression level 1 ...
Grouping cells for Laplace smoothing ...
       22771 cells,     1 zone  ...
      119140 faces,     5 zones ...
       82247 nodes,     1 zone  ...
  Done.
Done.

Registering a case "D:/HPC Workshop/Ansys Cases/parametric_mixer/parametric_ansys_project/Static_Mixer.cffdb\Static_Mixer-Solve\Static_Mixer.cas.h5" with simulation "Static_Mixer-Solve"...
(cx-gui-do cx-activate-tab-index "Parametric Study*Table1*Frame1*Table2*Frame1" 0)
(cx-gui-do cx-activate-tab-index "Parametric Study*Table1*Frame1*Table2*Frame1" 1)
(cx-gui-do cx-activate-tab-index "Parametric Study*Table1*Frame1*Table2*Frame1" 0)
(cx-gui-do cx-activate-tab-index "Parametric Study*Table1*Frame1*Table2*Frame1" 2)
(cx-gui-do cx-activate-tab-index "Parametric Study*Table1*Frame1*Table2*Frame1" 0)
(cx-gui-do cx-activate-tab-index "Parametric Study*Table1*Frame1*Table2*Frame1" 3)
(cx-gui-do cx-activate-tab-index "Parametric Study*Table1*Frame1*Table2*Frame1" 0)
(cx-gui-do cx-activate-tab-index "Parametric Study*Table1*Frame1*Table2*Frame1" 0)
(cx-gui-do cx-activate-tab-index "Parametric Study*Table1*Frame1*Table2*Frame1" 0)
(cx-gui-do cx-activate-tab-index "Parametric Study*Table1*Frame1*Table2*Frame1" 0)

Writing to ALI-DESKTOP:"D:/HPC Workshop/Ansys Cases/parametric_mixer/parametric_ansys_project/Static_Mixer.cffdb\Static_Mixer-Solve\BaseCases\Static_Mixer.cas.h5" in NODE0 mode and compression level 1 ...
Grouping cells for Laplace smoothing ...
       22771 cells,     1 zone  ...
      119140 faces,     5 zones ...
       82247 nodes,     1 zone  ...
  Done.
Done.

Writing to ALI-DESKTOP:"D:/HPC Workshop/Ansys Cases/parametric_mixer/parametric_ansys_project/Static_Mixer.cffdb\Static_Mixer-Solve\Base DP\Static_Mixer.cas.h5" in NODE0 mode and compression level 1 ...
Grouping cells for Laplace smoothing ...
       22771 cells,     1 zone  ...
      119140 faces,     5 zones ...
       82247 nodes,     1 zone  ...
  Done.
Done.

Writing to ALI-DESKTOP:"D:/HPC Workshop/Ansys Cases/parametric_mixer/parametric_ansys_project/Static_Mixer.cffdb\Static_Mixer-Solve\Base DP\Static_Mixer.dat.h5" in NODE0 mode and compression level 1 ...
  Writing results.
Done.
(cx-gui-do cx-activate-item "Ribbon*Frame1*Frame10(Parametric)*Table1*Table3(Design Point)*PushButton2(Add Design Point)")
(cx-gui-do cx-activate-item "Ribbon*Frame1*Frame10(Parametric)*Table1*Table3(Design Point)*PushButton2(Add Design Point)")
(cx-gui-do cx-activate-item "Ribbon*Frame1*Frame10(Parametric)*Table1*Table3(Design Point)*PushButton2(Add Design Point)")
(cx-gui-do cx-activate-item "Ribbon*Frame1*Frame10(Parametric)*Table1*Table3(Design Point)*PushButton2(Add Design Point)")
(cx-gui-do cx-activate-item "Ribbon*Frame1*Frame10(Parametric)*Table1*Table3(Design Point)*PushButton2(Add Design Point)")
(cx-gui-do cx-activate-item "Ribbon*Frame1*Frame10(Parametric)*Table1*Table3(Simulation Report)*PushButton1(Design Point Report Settings)")
(cx-gui-do cx-activate-item "Ribbon*Frame1*Frame10(Parametric)*Table1*Table3(Simulation Report)*PushButton3(Parametric Report)")
(cx-gui-do cx-activate-item "Ribbon*Frame1*Frame10(Parametric)*Table1*Table3(Update Options)*PushButton4(Update All)")

Opening input/output transcript to file "D:/HPC Workshop/Ansys Cases/parametric_mixer/parametric_ansys_project/Static_Mixer.cffdb/Static_Mixer-Solve/DP1\Auto-generated-transcript.trn".

-------------------------------------------------------------------------------
ID    Hostname     Core  O.S.         PID    Vendor                          
-------------------------------------------------------------------------------
n3    ALI-DESKTOP  4/8  Windows-x64  23304  Intel(R) Core(TM) i7-8665U      
n2    ALI-DESKTOP  3/8  Windows-x64  24444  Intel(R) Core(TM) i7-8665U      
n1    ALI-DESKTOP  2/8  Windows-x64  1988   Intel(R) Core(TM) i7-8665U      
n0*   ALI-DESKTOP  1/8  Windows-x64  8848   Intel(R) Core(TM) i7-8665U      
host  ALI-DESKTOP       Windows-x64  23228  Intel(R) Core(TM) i7-8665U      

MPI Option Selected: intel
Selected system interconnect: default
-------------------------------------------------------------------------------
Performance profile written to C:/Users/Dell/AppData/Local/Temp/_ALI-DESKTOP_2568/run-information.txt
Performance profile written to C:/Users/Dell/AppData/Local/Temp/_ALI-DESKTOP_2568/run-information.txt

number tracked = 204, escaped = 204

Writing "C:/Users/Dell/AppData/Local/Temp/_ALI-DESKTOP_2568/scene-lic-temp_scene.avz" ...
Done.

Writing "C:/Users/Dell/AppData/Local/Temp/_ALI-DESKTOP_2568/scene-lic-vel_scene.avz" ...
Done.

Writing "C:/Users/Dell/AppData/Local/Temp/_ALI-DESKTOP_2568/scene-vectors_scene.avz" ...
Done.

number tracked = 204, escaped = 204

number tracked = 204, escaped = 204

Writing "C:/Users/Dell/AppData/Local/Temp/_ALI-DESKTOP_2568/scene-pathlines-temp_scene.avz" ...
Done.

Writing "C:/Users/Dell/AppData/Local/Temp/_ALI-DESKTOP_2568/scene-vel-inlet-plane_scene.avz" ...
Done.

Writing "C:/Users/Dell/AppData/Local/Temp/_ALI-DESKTOP_2568/scene-temp-walls_scene.avz" ...
Done.

Writing "C:/Users/Dell/AppData/Local/Temp/_ALI-DESKTOP_2568/scene-temp-inlet-plane_scene.avz" ...
Done.
Multicore SMT processors detected. Processor affinity set!

       Clearing partially read grid.

Reading from ALI-DESKTOP:"D:/HPC Workshop/Ansys Cases/parametric_mixer/parametric_ansys_project/Static_Mixer.cffdb\Static_Mixer-Solve\BaseCases\Static_Mixer.cas.h5" in NODE0 mode ...
  Reading mesh ...
       22771 cells,     1 cell zone  ...
          22771 polyhedra cells,  zone id: 97
      119140 faces,     5 face zones ...
         114959 polygonal interior faces,  zone id: 96
           3873 polygonal wall faces,  zone id: 20
            104 polygonal pressure-outlet faces,  zone id: 19
            103 polygonal velocity-inlet faces,  zone id: 18
            101 polygonal velocity-inlet faces,  zone id: 17
       82247 nodes,     1 node zone  ...
  Done.


Building...
     mesh
	distributing mesh
		parts....,
		faces....,
		nodes....,
		cells....,
        bandwidth reduction using Reverse Cuthill-McKee: 5673/485 = 11.6969
     materials,
     interface,
     domains,
	mixture
     zones,
	interior--fluid
	wall
	outlet
	inlet2
	inlet1
	fluid
     parallel,
Done.

Applying input parameter values ...


  iter  continuity  x-velocity  y-velocity  z-velocity      energy           k     epsilon  outlet-tem     time/iter

 Reversed flow on 11 faces (20.3% area) of pressure-outlet 19.
     1  1.0000e+00  1.8319e-03  7.7721e-03  6.9565e-04  1.0359e-03  1.7399e-01  6.3895e+01  3.0000e+02  0:00:00  349

 Reversed flow on 7 faces (3.7% area) of pressure-outlet 19.
     2  8.8396e-01  1.0770e-02  7.2558e-02  1.1965e-02  1.1648e-03  1.3644e-01  3.5494e-01  3.0005e+02  0:11:36  348

 Reversed flow on 6 faces (3.1% area) of pressure-outlet 19.
     3  6.3585e-01  8.2818e-03  4.8698e-02  8.7605e-03  1.2696e-03  8.9029e-02  3.8580e-01  3.0048e+02  0:10:25  347
     4  5.5071e-01  4.5593e-03  2.3284e-02  5.0395e-03  1.2134e-03  7.9872e-02  5.9001e-01  3.0262e+02  0:08:18  346
     5  4.8473e-01  3.1601e-03  1.2291e-02  2.7885e-03  9.9181e-04  6.6636e-02  1.0661e+00  3.0513e+02  0:06:37  345
     6  3.7988e-01  2.4440e-03  6.7013e-03  2.0515e-03  8.0798e-04  5.2854e-02  1.3370e+00  3.0749e+02  0:06:26  344
     7  2.8190e-01  2.0470e-03  4.1591e-03  1.5195e-03  6.6966e-04  3.9166e-02  1.1840e+00  3.0980e+02  0:05:08  343
     8  2.0052e-01  1.7607e-03  2.9182e-03  1.2961e-03  5.7619e-04  2.7526e-02  8.7342e-01  3.1194e+02  0:05:14  342
     9  1.4067e-01  1.5270e-03  2.2443e-03  1.0417e-03  4.9935e-04  1.8714e-02  5.9128e-01  3.1389e+02  0:04:10  341
    10  9.9150e-02  1.3345e-03  1.8452e-03  8.5223e-04  4.3991e-04  1.2554e-02  3.8011e-01  3.1557e+02  0:04:28  340
    11  7.6278e-02  1.1894e-03  1.5946e-03  7.2155e-04  3.8305e-04  8.2547e-03  2.3122e-01  3.1706e+02  0:03:34  339

  iter  continuity  x-velocity  y-velocity  z-velocity      energy           k     epsilon  outlet-tem     time/iter
    12  6.4685e-02  1.0814e-03  1.4200e-03  6.1014e-04  3.3135e-04  5.4770e-03  1.3154e-01  3.1831e+02  0:02:50  338
    13  5.8004e-02  1.0054e-03  1.2962e-03  5.5679e-04  2.8856e-04  4.0804e-03  6.8400e-02  3.1937e+02  0:03:23  337
    14  5.2272e-02  9.5544e-04  1.2022e-03  5.0223e-04  2.5470e-04  3.4957e-03  4.6883e-02  3.2022e+02  0:02:42  336
    15  4.7462e-02  9.1985e-04  1.1267e-03  4.7009e-04  2.2898e-04  3.1914e-03  4.1586e-02  3.2097e+02  0:03:16  335
    16  4.3402e-02  8.8928e-04  1.0641e-03  4.4080e-04  2.0850e-04  3.0233e-03  4.0951e-02  3.2162e+02  0:02:37  334
    17  4.0581e-02  8.5803e-04  1.0095e-03  4.2138e-04  1.9139e-04  2.8922e-03  4.0826e-02  3.2216e+02  0:02:05  333
    18  3.8794e-02  8.2652e-04  9.6125e-04  4.0307e-04  1.7633e-04  2.7645e-03  4.0346e-02  3.2267e+02  0:02:46  332
    19  3.7416e-02  7.9383e-04  9.1643e-04  3.8760e-04  1.6342e-04  2.6526e-03  3.8972e-02  3.2313e+02  0:02:12  331
    20  3.6418e-02  7.6210e-04  8.7384e-04  3.6921e-04  1.5181e-04  2.5620e-03  3.7176e-02  3.2358e+02  0:01:46  330
    21  3.5444e-02  7.2851e-04  8.3251e-04  3.5466e-04  1.4130e-04  2.4850e-03  3.4963e-02  3.2400e+02  0:02:30  329
    22  3.4539e-02  6.9717e-04  7.9414e-04  3.3686e-04  1.3177e-04  2.4020e-03  3.2615e-02  3.2441e+02  0:02:00  328

  iter  continuity  x-velocity  y-velocity  z-velocity      energy           k     epsilon  outlet-tem     time/iter
    23  3.3508e-02  6.6521e-04  7.5738e-04  3.2227e-04  1.2257e-04  2.3134e-03  3.0130e-02  3.2482e+02  0:02:41  327
    24  3.2433e-02  6.3456e-04  7.2242e-04  3.0725e-04  1.1437e-04  2.2252e-03  2.7812e-02  3.2521e+02  0:02:08  326
    25  3.1357e-02  6.0458e-04  6.9014e-04  2.9425e-04  1.0663e-04  2.1104e-03  2.5464e-02  3.2559e+02  0:01:42  325
    26  3.0342e-02  5.7698e-04  6.6011e-04  2.7992e-04  9.9965e-05  2.0252e-03  2.3618e-02  3.2595e+02  0:02:26  324
    27  2.9340e-02  5.4978e-04  6.3144e-04  2.6844e-04  9.4105e-05  1.9586e-03  2.2148e-02  3.2630e+02  0:01:57  323
    28  2.8382e-02  5.2472e-04  6.0597e-04  2.5777e-04  8.8458e-05  1.9036e-03  2.1031e-02  3.2665e+02  0:01:33  322
    29  2.7510e-02  5.0097e-04  5.8104e-04  2.4814e-04  8.3147e-05  1.8435e-03  2.0004e-02  3.2698e+02  0:02:18  321
    30  2.6724e-02  4.7931e-04  5.5760e-04  2.3797e-04  7.8175e-05  1.7871e-03  1.9068e-02  3.2730e+02  0:01:50  320
    31  2.5986e-02  4.5791e-04  5.3476e-04  2.2891e-04  7.3511e-05  1.7434e-03  1.8300e-02  3.2761e+02  0:02:32  319
    32  2.5263e-02  4.3727e-04  5.1252e-04  2.2064e-04  6.9115e-05  1.7048e-03  1.7656e-02  3.2790e+02  0:02:01  318
    33  2.4529e-02  4.1839e-04  4.9117e-04  2.1138e-04  6.4743e-05  1.6688e-03  1.7187e-02  3.2817e+02  0:02:40  317

  iter  continuity  x-velocity  y-velocity  z-velocity      energy           k     epsilon  outlet-tem     time/iter
    34  2.3772e-02  3.9836e-04  4.6930e-04  2.0277e-04  6.0520e-05  1.6222e-03  1.6706e-02  3.2844e+02  0:02:08  316
    35  2.3026e-02  3.7992e-04  4.4829e-04  1.9254e-04  5.6456e-05  1.5845e-03  1.6275e-02  3.2868e+02  0:01:42  315
    36  2.2210e-02  3.6069e-04  4.2608e-04  1.8326e-04  5.2556e-05  1.5399e-03  1.5870e-02  3.2892e+02  0:02:24  314
    37  2.1376e-02  3.4329e-04  4.0490e-04  1.7344e-04  4.8945e-05  1.4931e-03  1.5474e-02  3.2914e+02  0:01:55  313
    38  2.0564e-02  3.2620e-04  3.8393e-04  1.6405e-04  4.5668e-05  1.4452e-03  1.5063e-02  3.2934e+02  0:01:32  312
    39  1.9741e-02  3.1018e-04  3.6361e-04  1.5475e-04  4.2836e-05  1.3863e-03  1.4644e-02  3.2953e+02  0:02:15  311
    40  1.8944e-02  2.9567e-04  3.4453e-04  1.4569e-04  4.0276e-05  1.3321e-03  1.4237e-02  3.2971e+02  0:01:48  310
    41  1.8171e-02  2.8155e-04  3.2656e-04  1.3763e-04  3.7992e-05  1.2776e-03  1.3870e-02  3.2987e+02  0:02:28  309
    42  1.7447e-02  2.6865e-04  3.1012e-04  1.2956e-04  3.5972e-05  1.2357e-03  1.3541e-02  3.3001e+02  0:01:58  308
    43  1.6699e-02  2.5666e-04  2.9432e-04  1.2217e-04  3.4138e-05  1.1961e-03  1.3207e-02  3.3015e+02  0:01:34  307
    44  1.5967e-02  2.4568e-04  2.7989e-04  1.1519e-04  3.2418e-05  1.1640e-03  1.2884e-02  3.3027e+02  0:02:16  306

  iter  continuity  x-velocity  y-velocity  z-velocity      energy           k     epsilon  outlet-tem     time/iter
    45  1.5286e-02  2.3565e-04  2.6693e-04  1.0909e-04  3.0860e-05  1.1375e-03  1.2563e-02  3.3037e+02  0:01:49  305
    46  1.4671e-02  2.2620e-04  2.5478e-04  1.0371e-04  2.9302e-05  1.1094e-03  1.2265e-02  3.3047e+02  0:01:27  304
    47  1.4134e-02  2.1789e-04  2.4385e-04  9.8910e-05  2.7734e-05  1.0803e-03  1.1974e-02  3.3055e+02  0:02:10  303
    48  1.3631e-02  2.0988e-04  2.3338e-04  9.4723e-05  2.6245e-05  1.0477e-03  1.1656e-02  3.3063e+02  0:01:43  302
    49  1.3126e-02  2.0220e-04  2.2353e-04  9.1062e-05  2.4820e-05  1.0083e-03  1.1293e-02  3.3069e+02  0:02:23  301
    50  1.2688e-02  1.9519e-04  2.1457e-04  8.7677e-05  2.3401e-05  9.6935e-04  1.0913e-02  3.3074e+02  0:01:54  300
    51  1.2245e-02  1.8784e-04  2.0556e-04  8.4822e-05  2.2007e-05  9.2336e-04  1.0488e-02  3.3079e+02  0:01:31  299
    52  1.1827e-02  1.8120e-04  1.9726e-04  8.2207e-05  2.0625e-05  8.7693e-04  1.0040e-02  3.3082e+02  0:02:12  298
    53  1.1436e-02  1.7456e-04  1.8905e-04  7.9641e-05  1.8827e-05  8.2670e-04  9.5575e-03  3.3085e+02  0:01:45  297
    54  1.1039e-02  1.6818e-04  1.8118e-04  7.7100e-05  1.7284e-05  7.8270e-04  9.0976e-03  3.3088e+02  0:02:23  296
    55  1.0622e-02  1.6152e-04  1.7364e-04  7.4692e-05  1.6254e-05  7.3762e-04  8.6022e-03  3.3089e+02  0:01:54  295

  iter  continuity  x-velocity  y-velocity  z-velocity      energy           k     epsilon  outlet-tem     time/iter
    56  1.0237e-02  1.5552e-04  1.6670e-04  7.1702e-05  1.5054e-05  6.9750e-04  8.1066e-03  3.3091e+02  0:01:31  294
    57  9.8577e-03  1.4938e-04  1.6017e-04  6.8674e-05  1.4149e-05  6.5996e-04  7.6232e-03  3.3092e+02  0:02:11  293
    58  9.4786e-03  1.4362e-04  1.5454e-04  6.5681e-05  1.3507e-05  6.2399e-04  7.1600e-03  3.3092e+02  0:01:45  292
    59  9.1237e-03  1.3802e-04  1.4945e-04  6.2853e-05  1.2998e-05  5.9107e-04  6.7032e-03  3.3092e+02  0:02:22  291
    60  8.7988e-03  1.3306e-04  1.4501e-04  5.9757e-05  1.2711e-05  5.6513e-04  6.3215e-03  3.3092e+02  0:01:53  290
    61  8.4817e-03  1.2781e-04  1.4061e-04  5.7410e-05  1.2531e-05  5.4008e-04  5.9650e-03  3.3092e+02  0:01:30  289
    62  8.1959e-03  1.2340e-04  1.3695e-04  5.4905e-05  1.2685e-05  5.1869e-04  5.6625e-03  3.3092e+02  0:02:09  288
    63  7.9345e-03  1.1897e-04  1.3321e-04  5.2979e-05  1.2575e-05  4.9941e-04  5.4036e-03  3.3091e+02  0:01:43  287
    64  7.7087e-03  1.1527e-04  1.2989e-04  5.0843e-05  1.2517e-05  4.8611e-04  5.2235e-03  3.3091e+02  0:01:22  286
    65  7.4965e-03  1.1156e-04  1.2648e-04  4.9579e-05  1.2659e-05  4.7272e-04  5.0725e-03  3.3090e+02  0:02:03  285
    66  7.2990e-03  1.0846e-04  1.2330e-04  4.8161e-05  1.2528e-05  4.6174e-04  4.9505e-03  3.3090e+02  0:01:38  284

  iter  continuity  x-velocity  y-velocity  z-velocity      energy           k     epsilon  outlet-tem     time/iter
    67  7.1132e-03  1.0543e-04  1.2000e-04  4.7111e-05  1.2583e-05  4.5211e-04  4.8487e-03  3.3090e+02  0:02:14  283
    68  6.9391e-03  1.0278e-04  1.1682e-04  4.6291e-05  1.2595e-05  4.4227e-04  4.7654e-03  3.3089e+02  0:01:47  282
    69  6.7696e-03  1.0029e-04  1.1368e-04  4.5637e-05  1.2517e-05  4.3283e-04  4.6833e-03  3.3089e+02  0:01:25  281
    70  6.6207e-03  9.8015e-05  1.1061e-04  4.4992e-05  1.2388e-05  4.2484e-04  4.6080e-03  3.3089e+02  0:02:04  280
    71  6.4761e-03  9.5743e-05  1.0747e-04  4.4473e-05  1.2231e-05  4.1703e-04  4.5277e-03  3.3089e+02  0:01:39  279
    72  6.3422e-03  9.3636e-05  1.0439e-04  4.3982e-05  1.1818e-05  4.0940e-04  4.4382e-03  3.3089e+02  0:01:19  278
    73  6.2150e-03  9.1515e-05  1.0135e-04  4.3516e-05  1.1575e-05  4.0071e-04  4.3422e-03  3.3088e+02  0:01:58  277
    74  6.0933e-03  8.9477e-05  9.8385e-05  4.2911e-05  1.1320e-05  3.9291e-04  4.2439e-03  3.3088e+02  0:02:29  276
    75  5.9791e-03  8.7416e-05  9.5448e-05  4.2319e-05  1.1029e-05  3.8583e-04  4.1472e-03  3.3088e+02  0:01:59  275
    76  5.8745e-03  8.5353e-05  9.2640e-05  4.1697e-05  1.0730e-05  3.7899e-04  4.0485e-03  3.3088e+02  0:01:35  274
    77  5.7637e-03  8.3264e-05  8.9896e-05  4.0998e-05  1.0437e-05  3.7105e-04  3.9340e-03  3.3088e+02  0:02:10  273

  iter  continuity  x-velocity  y-velocity  z-velocity      energy           k     epsilon  outlet-tem     time/iter
    78  5.6531e-03  8.1154e-05  8.7288e-05  4.0241e-05  1.0138e-05  3.6312e-04  3.8162e-03  3.3088e+02  0:01:44  272
    79  5.5398e-03  7.9120e-05  8.4806e-05  3.9402e-05  9.8433e-06  3.5502e-04  3.6990e-03  3.3089e+02  0:02:17  271
    80  5.4166e-03  7.7061e-05  8.2387e-05  3.8520e-05  9.5695e-06  3.4740e-04  3.5821e-03  3.3089e+02  0:01:49  270
    81  5.2854e-03  7.4971e-05  8.0071e-05  3.7619e-05  9.3019e-06  3.3936e-04  3.4709e-03  3.3089e+02  0:01:27  269
    82  5.1672e-03  7.2985e-05  7.7967e-05  3.6641e-05  9.0685e-06  3.3254e-04  3.3698e-03  3.3089e+02  0:02:03  268
    83  5.0453e-03  7.0920e-05  7.5799e-05  3.5689e-05  8.8411e-06  3.2497e-04  3.2799e-03  3.3089e+02  0:01:38  267
    84  4.9257e-03  6.9015e-05  7.3898e-05  3.4681e-05  8.6404e-06  3.1775e-04  3.1976e-03  3.3090e+02  0:01:18  266
    85  4.8062e-03  6.7094e-05  7.1977e-05  3.3726e-05  8.3017e-06  3.1032e-04  3.1235e-03  3.3090e+02  0:01:55  265
    86  4.6872e-03  6.5295e-05  7.0225e-05  3.2801e-05  8.1560e-06  3.0320e-04  3.0526e-03  3.3090e+02  0:01:32  264
    87  4.5667e-03  6.3471e-05  6.8460e-05  3.1922e-05  7.8930e-06  2.9559e-04  2.9796e-03  3.3090e+02  0:02:06  263
    88  4.4558e-03  6.1807e-05  6.6895e-05  3.1059e-05  7.7965e-06  2.8854e-04  2.9086e-03  3.3091e+02  0:01:40  262

  iter  continuity  x-velocity  y-velocity  z-velocity      energy           k     epsilon  outlet-tem     time/iter
    89  4.3460e-03  6.0196e-05  6.5346e-05  3.0242e-05  7.5901e-06  2.8223e-04  2.8421e-03  3.3091e+02  0:01:20  261
    90  4.2444e-03  5.8666e-05  6.3876e-05  2.9496e-05  7.4021e-06  2.7593e-04  2.7796e-03  3.3091e+02  0:01:56  260
    91  4.1540e-03  5.7249e-05  6.2531e-05  2.8771e-05  7.3729e-06  2.7048e-04  2.7237e-03  3.3092e+02  0:01:32  259
    92  4.0631e-03  5.5845e-05  6.1167e-05  2.8122e-05  7.3539e-06  2.6511e-04  2.6694e-03  3.3092e+02  0:01:13  258
    93  3.9771e-03  5.4534e-05  5.9905e-05  2.7518e-05  7.1798e-06  2.5954e-04  2.6117e-03  3.3093e+02  0:01:50  257
    94  3.8965e-03  5.3326e-05  5.8717e-05  2.6921e-05  7.0270e-06  2.5450e-04  2.5558e-03  3.3093e+02  0:01:28  256
    95  3.8170e-03  5.2145e-05  5.7535e-05  2.6399e-05  7.0015e-06  2.4923e-04  2.5023e-03  3.3094e+02  0:01:10  255
    96  3.7471e-03  5.1089e-05  5.6454e-05  2.5886e-05  6.8712e-06  2.4463e-04  2.4564e-03  3.3094e+02  0:01:46  254
    97  3.6726e-03  5.0031e-05  5.5338e-05  2.5437e-05  6.7484e-06  2.3976e-04  2.4131e-03  3.3095e+02  0:01:25  253
    98  3.6085e-03  4.9062e-05  5.4331e-05  2.4996e-05  6.6285e-06  2.3484e-04  2.3732e-03  3.3095e+02  0:01:58  252
    99  3.5530e-03  4.8178e-05  5.3358e-05  2.4553e-05  6.5291e-06  2.3083e-04  2.3405e-03  3.3096e+02  0:01:34  251

  iter  continuity  x-velocity  y-velocity  z-velocity      energy           k     epsilon  outlet-tem     time/iter
   100  3.4940e-03  4.7273e-05  5.2346e-05  2.4160e-05  6.4324e-06  2.2708e-04  2.3104e-03  3.3097e+02  0:01:15  250
   101  3.4423e-03  4.6467e-05  5.1443e-05  2.3759e-05  6.3445e-06  2.2385e-04  2.2849e-03  3.3097e+02  0:01:49  249
   102  3.3906e-03  4.5614e-05  5.0479e-05  2.3391e-05  6.2607e-06  2.2069e-04  2.2616e-03  3.3098e+02  0:01:27  248
   103  3.3388e-03  4.4832e-05  4.9602e-05  2.3028e-05  6.1757e-06  2.1780e-04  2.2390e-03  3.3099e+02  0:01:10  247
   104  3.2905e-03  4.4094e-05  4.8735e-05  2.2664e-05  6.0916e-06  2.1482e-04  2.2145e-03  3.3100e+02  0:01:45  246
   105  3.2452e-03  4.3378e-05  4.7902e-05  2.2313e-05  6.0035e-06  2.1180e-04  2.1910e-03  3.3100e+02  0:01:23  245
   106  3.1995e-03  4.2707e-05  4.7109e-05  2.1960e-05  5.9224e-06  2.0928e-04  2.1695e-03  3.3101e+02  0:01:55  244
   107  3.1523e-03  4.1990e-05  4.6296e-05  2.1650e-05  5.8344e-06  2.0643e-04  2.1475e-03  3.3102e+02  0:01:32  243
   108  3.1106e-03  4.1366e-05  4.5600e-05  2.1308e-05  5.7464e-06  2.0387e-04  2.1281e-03  3.3103e+02  0:01:13  242
   109  3.0672e-03  4.0698e-05  4.4845e-05  2.0994e-05  5.6573e-06  2.0184e-04  2.1106e-03  3.3104e+02  0:01:46  241
   110  3.0226e-03  4.0032e-05  4.4128e-05  2.0701e-05  5.5642e-06  1.9968e-04  2.0912e-03  3.3104e+02  0:01:25  240

  iter  continuity  x-velocity  y-velocity  z-velocity      energy           k     epsilon  outlet-tem     time/iter
   111  2.9793e-03  3.9420e-05  4.3460e-05  2.0356e-05  5.4654e-06  1.9735e-04  2.0713e-03  3.3105e+02  0:01:08  239
   112  2.9398e-03  3.8822e-05  4.2806e-05  2.0014e-05  5.3705e-06  1.9532e-04  2.0514e-03  3.3106e+02  0:01:41  238
   113  2.8952e-03  3.8191e-05  4.2139e-05  1.9707e-05  5.2732e-06  1.9326e-04  2.0310e-03  3.3107e+02  0:01:21  237
   114  2.8537e-03  3.7618e-05  4.1545e-05  1.9350e-05  5.1749e-06  1.9122e-04  2.0097e-03  3.3107e+02  0:01:52  236
   115  2.8128e-03  3.7032e-05  4.0908e-05  1.9021e-05  5.0751e-06  1.8913e-04  1.9886e-03  3.3108e+02  0:01:29  235
   116  2.7698e-03  3.6462e-05  4.0305e-05  1.8716e-05  4.9763e-06  1.8706e-04  1.9665e-03  3.3109e+02  0:01:11  234
   117  2.7316e-03  3.5906e-05  3.9732e-05  1.8416e-05  4.8799e-06  1.8513e-04  1.9475e-03  3.3110e+02  0:01:43  233
   118  2.6940e-03  3.5362e-05  3.9173e-05  1.8120e-05  4.7839e-06  1.8323e-04  1.9311e-03  3.3110e+02  0:01:22  232
   119  2.6571e-03  3.4830e-05  3.8625e-05  1.7832e-05  4.6919e-06  1.8145e-04  1.9178e-03  3.3111e+02  0:01:52  231
   120  2.6176e-03  3.4302e-05  3.8087e-05  1.7553e-05  4.6052e-06  1.7963e-04  1.9055e-03  3.3111e+02  0:01:29  230
   121  2.5782e-03  3.3772e-05  3.7562e-05  1.7294e-05  4.5233e-06  1.7768e-04  1.8913e-03  3.3112e+02  0:01:11  229

  iter  continuity  x-velocity  y-velocity  z-velocity      energy           k     epsilon  outlet-tem     time/iter
   122  2.5413e-03  3.3257e-05  3.7057e-05  1.7035e-05  4.4427e-06  1.7564e-04  1.8750e-03  3.3112e+02  0:01:42  228
   123  2.5060e-03  3.2769e-05  3.6565e-05  1.6774e-05  4.3633e-06  1.7347e-04  1.8580e-03  3.3113e+02  0:01:21  227
   124  2.4731e-03  3.2293e-05  3.6074e-05  1.6519e-05  4.2930e-06  1.7179e-04  1.8423e-03  3.3113e+02  0:01:05  226
   125  2.4384e-03  3.1795e-05  3.5568e-05  1.6298e-05  4.2208e-06  1.6969e-04  1.8265e-03  3.3114e+02  0:01:37  225
   126  2.4080e-03  3.1344e-05  3.5111e-05  1.6051e-05  4.1544e-06  1.6771e-04  1.8118e-03  3.3114e+02  0:01:17  224
   127  2.3738e-03  3.0876e-05  3.4616e-05  1.5827e-05  4.0926e-06  1.6588e-04  1.7990e-03  3.3115e+02  0:01:46  223
   128  2.3405e-03  3.0429e-05  3.4160e-05  1.5618e-05  4.0332e-06  1.6411e-04  1.7873e-03  3.3115e+02  0:01:24  222
   129  2.3106e-03  2.9991e-05  3.3699e-05  1.5408e-05  3.9807e-06  1.6236e-04  1.7766e-03  3.3115e+02  0:01:07  221
   130  2.2797e-03  2.9553e-05  3.3230e-05  1.5210e-05  3.9288e-06  1.6043e-04  1.7664e-03  3.3116e+02  0:01:37  220
   131  2.2483e-03  2.9147e-05  3.2785e-05  1.4999e-05  3.8818e-06  1.5864e-04  1.7571e-03  3.3116e+02  0:02:01  219
   132  2.2184e-03  2.8727e-05  3.2323e-05  1.4792e-05  3.8351e-06  1.5694e-04  1.7478e-03  3.3116e+02  0:01:37  218

  iter  continuity  x-velocity  y-velocity  z-velocity      energy           k     epsilon  outlet-tem     time/iter
   133  2.1903e-03  2.8328e-05  3.1885e-05  1.4590e-05  3.7976e-06  1.5551e-04  1.7367e-03  3.3117e+02  0:02:00  217
   134  2.1615e-03  2.7904e-05  3.1422e-05  1.4427e-05  3.7556e-06  1.5348e-04  1.7250e-03  3.3117e+02  0:01:36  216
   135  2.1386e-03  2.7532e-05  3.1005e-05  1.4226e-05  3.7159e-06  1.5182e-04  1.7133e-03  3.3117e+02  0:01:59  215
   136  2.1132e-03  2.7147e-05  3.0554e-05  1.4044e-05  3.6790e-06  1.5029e-04  1.7024e-03  3.3117e+02  0:01:35  214
   137  2.0867e-03  2.6764e-05  3.0123e-05  1.3864e-05  3.6484e-06  1.4892e-04  1.6917e-03  3.3118e+02  0:01:16  213
   138  2.0619e-03  2.6378e-05  2.9690e-05  1.3706e-05  3.6137e-06  1.4734e-04  1.6805e-03  3.3118e+02  0:01:43  212
   139  2.0388e-03  2.6029e-05  2.9289e-05  1.3517e-05  3.5826e-06  1.4588e-04  1.6673e-03  3.3118e+02  0:01:22  211
   140  2.0150e-03  2.5658e-05  2.8856e-05  1.3361e-05  3.5482e-06  1.4421e-04  1.6539e-03  3.3118e+02  0:01:05  210
   141  1.9931e-03  2.5330e-05  2.8482e-05  1.3186e-05  3.5169e-06  1.4271e-04  1.6404e-03  3.3119e+02  0:01:34  209
   142  1.9707e-03  2.4977e-05  2.8079e-05  1.3025e-05  3.4922e-06  1.4146e-04  1.6268e-03  3.3119e+02  0:01:15  208
   143  1.9475e-03  2.4617e-05  2.7686e-05  1.2884e-05  3.4642e-06  1.3982e-04  1.6125e-03  3.3119e+02  0:01:41  207

  iter  continuity  x-velocity  y-velocity  z-velocity      energy           k     epsilon  outlet-tem     time/iter
   144  1.9290e-03  2.4310e-05  2.7336e-05  1.2702e-05  3.4396e-06  1.3826e-04  1.5971e-03  3.3119e+02  0:01:20  206
   145  1.9074e-03  2.3965e-05  2.6946e-05  1.2552e-05  3.4162e-06  1.3679e-04  1.5807e-03  3.3120e+02  0:01:04  205
   146  1.8853e-03  2.3638e-05  2.6590e-05  1.2406e-05  3.3925e-06  1.3531e-04  1.5630e-03  3.3120e+02  0:01:32  204
   147  1.8631e-03  2.3323e-05  2.6243e-05  1.2248e-05  3.3676e-06  1.3397e-04  1.5442e-03  3.3120e+02  0:01:13  203
   148  1.8410e-03  2.3008e-05  2.5893e-05  1.2101e-05  3.3385e-06  1.3250e-04  1.5262e-03  3.3120e+02  0:00:58  202
   149  1.8205e-03  2.2724e-05  2.5570e-05  1.1932e-05  3.3085e-06  1.3122e-04  1.5094e-03  3.3120e+02  0:01:26  201
   150  1.7973e-03  2.2428e-05  2.5235e-05  1.1770e-05  3.2807e-06  1.3000e-04  1.4941e-03  3.3121e+02  0:01:09  200
   151  1.7765e-03  2.2137e-05  2.4921e-05  1.1619e-05  3.2535e-06  1.2876e-04  1.4796e-03  3.3121e+02  0:01:35  199
   152  1.7566e-03  2.1862e-05  2.4621e-05  1.1471e-05  3.2255e-06  1.2747e-04  1.4658e-03  3.3121e+02  0:01:15  198
   153  1.7362e-03  2.1591e-05  2.4323e-05  1.1331e-05  3.1989e-06  1.2634e-04  1.4520e-03  3.3121e+02  0:01:00  197
   154  1.7167e-03  2.1314e-05  2.4025e-05  1.1207e-05  3.1697e-06  1.2503e-04  1.4371e-03  3.3121e+02  0:01:27  196

  iter  continuity  x-velocity  y-velocity  z-velocity      energy           k     epsilon  outlet-tem     time/iter
   155  1.6979e-03  2.1066e-05  2.3755e-05  1.1069e-05  3.1425e-06  1.2381e-04  1.4200e-03  3.3122e+02  0:01:09  195
   156  1.6781e-03  2.0804e-05  2.3474e-05  1.0944e-05  3.1146e-06  1.2258e-04  1.4030e-03  3.3122e+02  0:01:34  194
   157  1.6583e-03  2.0557e-05  2.3210e-05  1.0815e-05  3.0862e-06  1.2140e-04  1.3866e-03  3.3122e+02  0:01:15  193
   158  1.6395e-03  2.0315e-05  2.2947e-05  1.0690e-05  3.0568e-06  1.2010e-04  1.3700e-03  3.3122e+02  0:00:59  192
   159  1.6216e-03  2.0079e-05  2.2693e-05  1.0567e-05  3.0271e-06  1.1886e-04  1.3543e-03  3.3122e+02  0:01:26  191
   160  1.6029e-03  1.9850e-05  2.2444e-05  1.0453e-05  2.9970e-06  1.1766e-04  1.3397e-03  3.3123e+02  0:01:08  190
   161  1.5853e-03  1.9634e-05  2.2208e-05  1.0335e-05  2.9687e-06  1.1666e-04  1.3262e-03  3.3123e+02  0:00:54  189
   162  1.5680e-03  1.9409e-05  2.1964e-05  1.0229e-05  2.9399e-06  1.1566e-04  1.3139e-03  3.3123e+02  0:01:21  188
   163  1.5515e-03  1.9199e-05  2.1735e-05  1.0115e-05  2.9136e-06  1.1472e-04  1.3019e-03  3.3123e+02  0:01:04  187
   164  1.5346e-03  1.8979e-05  2.1498e-05  1.0015e-05  2.8832e-06  1.1363e-04  1.2917e-03  3.3123e+02  0:01:28  186
   165  1.5196e-03  1.8795e-05  2.1297e-05  9.8989e-06  2.8567e-06  1.1279e-04  1.2826e-03  3.3123e+02  0:01:10  185

  iter  continuity  x-velocity  y-velocity  z-velocity      energy           k     epsilon  outlet-tem     time/iter
   166  1.5035e-03  1.8577e-05  2.1061e-05  9.8031e-06  2.8304e-06  1.1197e-04  1.2754e-03  3.3123e+02  0:01:33  184
   167  1.4892e-03  1.8394e-05  2.0862e-05  9.7028e-06  2.8046e-06  1.1127e-04  1.2686e-03  3.3124e+02  0:01:14  183
   168  1.4746e-03  1.8201e-05  2.0648e-05  9.6083e-06  2.7784e-06  1.1044e-04  1.2611e-03  3.3124e+02  0:01:35  182
   169  1.4597e-03  1.8015e-05  2.0442e-05  9.5165e-06  2.7515e-06  1.0949e-04  1.2524e-03  3.3124e+02  0:01:16  181
   170  1.4458e-03  1.7840e-05  2.0241e-05  9.4227e-06  2.7258e-06  1.0863e-04  1.2423e-03  3.3124e+02  0:01:00  180
   171  1.4305e-03  1.7657e-05  2.0032e-05  9.3342e-06  2.7008e-06  1.0786e-04  1.2314e-03  3.3124e+02  0:01:24  179
   172  1.4161e-03  1.7476e-05  1.9831e-05  9.2477e-06  2.6776e-06  1.0703e-04  1.2198e-03  3.3124e+02  0:01:07  178
   173  1.4024e-03  1.7296e-05  1.9629e-05  9.1677e-06  2.6548e-06  1.0600e-04  1.2076e-03  3.3124e+02  0:01:28  177
   174  1.3897e-03  1.7128e-05  1.9434e-05  9.0805e-06  2.6310e-06  1.0498e-04  1.1956e-03  3.3124e+02  0:01:10  176
   175  1.3780e-03  1.6964e-05  1.9238e-05  8.9922e-06  2.6094e-06  1.0416e-04  1.1850e-03  3.3124e+02  0:00:56  175
   176  1.3653e-03  1.6791e-05  1.9039e-05  8.9140e-06  2.5873e-06  1.0332e-04  1.1755e-03  3.3125e+02  0:01:19  174

  iter  continuity  x-velocity  y-velocity  z-velocity      energy           k     epsilon  outlet-tem     time/iter
   177  1.3534e-03  1.6632e-05  1.8857e-05  8.8282e-06  2.5653e-06  1.0241e-04  1.1661e-03  3.3125e+02  0:01:03  173
   178  1.3403e-03  1.6471e-05  1.8666e-05  8.7437e-06  2.5441e-06  1.0140e-04  1.1563e-03  3.3125e+02  0:01:25  172
   179  1.3275e-03  1.6313e-05  1.8482e-05  8.6627e-06  2.5251e-06  1.0059e-04  1.1467e-03  3.3125e+02  0:01:07  171
   180  1.3154e-03  1.6145e-05  1.8292e-05  8.5930e-06  2.5060e-06  9.9723e-05  1.1375e-03  3.3125e+02  0:00:53  170
   181  1.3043e-03  1.5993e-05  1.8115e-05  8.5108e-06  2.4853e-06  9.8810e-05  1.1286e-03  3.3125e+02  0:01:16  169
   182  1.2926e-03  1.5844e-05  1.7937e-05  8.4283e-06  2.4670e-06  9.8096e-05  1.1204e-03  3.3125e+02  0:01:01  168
   183  1.2797e-03  1.5682e-05  1.7748e-05  8.3589e-06  2.4483e-06  9.7334e-05  1.1126e-03  3.3125e+02  0:00:48  167
   184  1.2677e-03  1.5534e-05  1.7577e-05  8.2840e-06  2.4276e-06  9.6533e-05  1.1051e-03  3.3125e+02  0:01:12  166
   185  1.2553e-03  1.5391e-05  1.7405e-05  8.2040e-06  2.4085e-06  9.5846e-05  1.0980e-03  3.3125e+02  0:00:57  165
   186  1.2436e-03  1.5234e-05  1.7224e-05  8.1320e-06  2.3877e-06  9.4966e-05  1.0896e-03  3.3125e+02  0:01:18  164
   187  1.2323e-03  1.5095e-05  1.7063e-05  8.0573e-06  2.3671e-06  9.4174e-05  1.0804e-03  3.3125e+02  0:01:02  163

  iter  continuity  x-velocity  y-velocity  z-velocity      energy           k     epsilon  outlet-tem     time/iter
   188  1.2208e-03  1.4950e-05  1.6896e-05  7.9843e-06  2.3466e-06  9.3306e-05  1.0710e-03  3.3125e+02  0:00:49  162
   189  1.2094e-03  1.4809e-05  1.6733e-05  7.9119e-06  2.3277e-06  9.2554e-05  1.0612e-03  3.3125e+02  0:01:11  161
   190  1.1972e-03  1.4657e-05  1.6563e-05  7.8497e-06  2.3063e-06  9.1548e-05  1.0507e-03  3.3125e+02  0:00:57  160
   191  1.1863e-03  1.4534e-05  1.6416e-05  7.7716e-06  2.2865e-06  9.0783e-05  1.0407e-03  3.3126e+02  0:00:45  159
   192  1.1750e-03  1.4383e-05  1.6241e-05  7.7074e-06  2.2656e-06  8.9938e-05  1.0307e-03  3.3126e+02  0:01:07  158
   193  1.1637e-03  1.4252e-05  1.6091e-05  7.6352e-06  2.2449e-06  8.9145e-05  1.0210e-03  3.3126e+02  0:00:54  157
   194  1.1524e-03  1.4114e-05  1.5930e-05  7.5643e-06  2.2247e-06  8.8334e-05  1.0116e-03  3.3126e+02  0:01:14  156
   195  1.1418e-03  1.3978e-05  1.5776e-05  7.4956e-06  2.2053e-06  8.7534e-05  1.0023e-03  3.3126e+02  0:00:59  155
   196  1.1313e-03  1.3839e-05  1.5621e-05  7.4274e-06  2.1853e-06  8.6674e-05  9.9163e-04  3.3126e+02  0:00:47  154
   197  1.1204e-03  1.3705e-05  1.5469e-05  7.3580e-06  2.1637e-06  8.5735e-05  9.7985e-04  3.3126e+02  0:01:08  153
   198  1.1100e-03  1.3579e-05  1.5323e-05  7.2854e-06  2.1424e-06  8.4922e-05  9.6806e-04  3.3126e+02  0:00:54  152

  iter  continuity  x-velocity  y-velocity  z-velocity      energy           k     epsilon  outlet-tem     time/iter
   199  1.0999e-03  1.3442e-05  1.5169e-05  7.2174e-06  2.1225e-06  8.4113e-05  9.5663e-04  3.3126e+02  0:00:43  151
   200  1.0892e-03  1.3307e-05  1.5020e-05  7.1568e-06  2.1006e-06  8.3112e-05  9.4525e-04  3.3126e+02  0:01:04  150
   201  1.0790e-03  1.3194e-05  1.4883e-05  7.0802e-06  2.0790e-06  8.2255e-05  9.3466e-04  3.3126e+02  0:00:51  149
   202  1.0687e-03  1.3064e-05  1.4730e-05  7.0109e-06  2.0577e-06  8.1405e-05  9.2477e-04  3.3126e+02  0:01:10  148
   203  1.0586e-03  1.2940e-05  1.4588e-05  6.9421e-06  2.0377e-06  8.0603e-05  9.1574e-04  3.3126e+02  0:00:56  147
   204  1.0477e-03  1.2811e-05  1.4442e-05  6.8770e-06  2.0175e-06  7.9704e-05  9.0668e-04  3.3126e+02  0:01:13  146
   205  1.0369e-03  1.2693e-05  1.4303e-05  6.8069e-06  1.9984e-06  7.8937e-05  8.9820e-04  3.3126e+02  0:00:58  145
   206  1.0266e-03  1.2564e-05  1.4154e-05  6.7423e-06  1.9774e-06  7.8080e-05  8.9007e-04  3.3126e+02  0:00:46  144
   207  1.0169e-03  1.2449e-05  1.4014e-05  6.6720e-06  1.9572e-06  7.7257e-05  8.8197e-04  3.3126e+02  0:01:05  143
   208  1.0071e-03  1.2328e-05  1.3868e-05  6.6039e-06  1.9365e-06  7.6431e-05  8.7384e-04  3.3126e+02  0:00:52  142
   209  9.9690e-04  1.2208e-05  1.3727e-05  6.5360e-06  1.9162e-06  7.5606e-05  8.6581e-04  3.3126e+02  0:00:41  141

  iter  continuity  x-velocity  y-velocity  z-velocity      energy           k     epsilon  outlet-tem     time/iter
   210  9.8667e-04  1.2087e-05  1.3586e-05  6.4696e-06  1.8957e-06  7.4708e-05  8.5706e-04  3.3126e+02  0:01:01  140
   211  9.7596e-04  1.1971e-05  1.3449e-05  6.4031e-06  1.8757e-06  7.3925e-05  8.4880e-04  3.3126e+02  0:00:48  139
   212  9.6596e-04  1.1852e-05  1.3309e-05  6.3380e-06  1.8559e-06  7.3148e-05  8.4031e-04  3.3126e+02  0:01:06  138
   213  9.5629e-04  1.1734e-05  1.3173e-05  6.2737e-06  1.8368e-06  7.2365e-05  8.3099e-04  3.3126e+02  0:00:52  137
   214  9.4702e-04  1.1612e-05  1.3033e-05  6.2151e-06  1.8165e-06  7.1483e-05  8.2076e-04  3.3126e+02  0:00:42  136
   215  9.3812e-04  1.1499e-05  1.2898e-05  6.1499e-06  1.7976e-06  7.0691e-05  8.1017e-04  3.3126e+02  0:01:00  135
   216  9.2838e-04  1.1372e-05  1.2751e-05  6.0954e-06  1.7778e-06  6.9799e-05  7.9911e-04  3.3126e+02  0:00:48  134
   217  9.1878e-04  1.1262e-05  1.2620e-05  6.0280e-06  1.7573e-06  6.8878e-05  7.8819e-04  3.3126e+02  0:00:38  133
   218  9.0922e-04  1.1146e-05  1.2481e-05  5.9608e-06  1.7378e-06  6.8022e-05  7.7810e-04  3.3126e+02  0:00:56  132
   219  8.9945e-04  1.1028e-05  1.2343e-05  5.8968e-06  1.7179e-06  6.7150e-05  7.6862e-04  3.3126e+02  0:00:45  131
   220  8.9038e-04  1.0917e-05  1.2212e-05  5.8305e-06  1.6984e-06  6.6316e-05  7.5964e-04  3.3126e+02  0:01:02  130

  iter  continuity  x-velocity  y-velocity  z-velocity      energy           k     epsilon  outlet-tem     time/iter
   221  8.8125e-04  1.0803e-05  1.2079e-05  5.7657e-06  1.6797e-06  6.5490e-05  7.5044e-04  3.3126e+02  0:00:49  129
   222  8.7174e-04  1.0686e-05  1.1944e-05  5.7050e-06  1.6606e-06  6.4571e-05  7.4058e-04  3.3126e+02  0:01:04  128
   223  8.6288e-04  1.0579e-05  1.1817e-05  5.6388e-06  1.6426e-06  6.3786e-05  7.3090e-04  3.3126e+02  0:00:51  127
   224  8.5346e-04  1.0459e-05  1.1679e-05  5.5806e-06  1.6236e-06  6.2960e-05  7.2129e-04  3.3126e+02  0:00:41  126
   225  8.4421e-04  1.0351e-05  1.1553e-05  5.5162e-06  1.6038e-06  6.2025e-05  7.1168e-04  3.3126e+02  0:00:57  125
   226  8.3537e-04  1.0248e-05  1.1427e-05  5.4484e-06  1.5851e-06  6.1208e-05  7.0287e-04  3.3126e+02  0:00:45  124
   227  8.2623e-04  1.0131e-05  1.1294e-05  5.3863e-06  1.5658e-06  6.0344e-05  6.9428e-04  3.3126e+02  0:01:01  123
   228  8.1683e-04  1.0022e-05  1.1169e-05  5.3201e-06  1.5474e-06  5.9608e-05  6.8630e-04  3.3126e+02  0:00:48  122
   229  8.0685e-04  9.9072e-06  1.1037e-05  5.2588e-06  1.5277e-06  5.8779e-05  6.7821e-04  3.3126e+02  0:01:02  121
   230  7.9781e-04  9.8067e-06  1.0915e-05  5.1916e-06  1.5085e-06  5.8036e-05  6.7047e-04  3.3126e+02  0:00:49  120
   231  7.8846e-04  9.6943e-06  1.0782e-05  5.1292e-06  1.4886e-06  5.7265e-05  6.6303e-04  3.3126e+02  0:00:39  119

  iter  continuity  x-velocity  y-velocity  z-velocity      energy           k     epsilon  outlet-tem     time/iter
   232  7.7926e-04  9.5904e-06  1.0660e-05  5.0656e-06  1.4694e-06  5.6494e-05  6.5537e-04  3.3126e+02  0:00:55  118
   233  7.7000e-04  9.4816e-06  1.0534e-05  5.0040e-06  1.4500e-06  5.5730e-05  6.4744e-04  3.3126e+02  0:00:43  117
   234  7.6060e-04  9.3744e-06  1.0409e-05  4.9419e-06  1.4311e-06  5.4964e-05  6.3938e-04  3.3126e+02  0:00:58  116
   235  7.5078e-04  9.2666e-06  1.0285e-05  4.8809e-06  1.4124e-06  5.4259e-05  6.3182e-04  3.3126e+02  0:00:46  115
   236  7.4147e-04  9.1576e-06  1.0161e-05  4.8198e-06  1.3937e-06  5.3528e-05  6.2425e-04  3.3126e+02  0:00:36  114
   237  7.3220e-04  9.0472e-06  1.0038e-05  4.7599e-06  1.3756e-06  5.2835e-05  6.1668e-04  3.3126e+02  0:00:51  113
   238  7.2266e-04  8.9358e-06  9.9121e-06  4.7038e-06  1.3563e-06  5.2091e-05  6.0852e-04  3.3126e+02  0:00:41  112
   239  7.1369e-04  8.8353e-06  9.7945e-06  4.6393e-06  1.3379e-06  5.1382e-05  5.9995e-04  3.3126e+02  0:00:32  111
   240  7.0464e-04  8.7232e-06  9.6660e-06  4.5800e-06  1.3189e-06  5.0616e-05  5.9111e-04  3.3126e+02  0:00:48  110
   241  6.9587e-04  8.6200e-06  9.5488e-06  4.5184e-06  1.3002e-06  4.9842e-05  5.8216e-04  3.3126e+02  0:00:38  109
   242  6.8687e-04  8.5121e-06  9.4264e-06  4.4575e-06  1.2817e-06  4.9078e-05  5.7338e-04  3.3126e+02  0:00:52  108

  iter  continuity  x-velocity  y-velocity  z-velocity      energy           k     epsilon  outlet-tem     time/iter
   243  6.7798e-04  8.4081e-06  9.3071e-06  4.3971e-06  1.2638e-06  4.8357e-05  5.6475e-04  3.3126e+02  0:00:41  107
   244  6.6884e-04  8.2982e-06  9.1828e-06  4.3436e-06  1.2449e-06  4.7504e-05  5.5559e-04  3.3126e+02  0:00:32  106
   245  6.6026e-04  8.2010e-06  9.0697e-06  4.2798e-06  1.2266e-06  4.6765e-05  5.4678e-04  3.3126e+02  0:00:47  105
   246  6.5168e-04  8.0933e-06  8.9451e-06  4.2229e-06  1.2080e-06  4.6035e-05  5.3828e-04  3.3126e+02  0:00:37  104
   247  6.4305e-04  7.9925e-06  8.8298e-06  4.1638e-06  1.1890e-06  4.5336e-05  5.2985e-04  3.3126e+02  0:00:29  103
   248  6.3424e-04  7.8864e-06  8.7094e-06  4.1079e-06  1.1715e-06  4.4605e-05  5.2112e-04  3.3126e+02  0:00:44  102
   249  6.2509e-04  7.7854e-06  8.5955e-06  4.0489e-06  1.1533e-06  4.3892e-05  5.1253e-04  3.3126e+02  0:00:35  101
   250  6.1651e-04  7.6829e-06  8.4789e-06  3.9897e-06  1.1352e-06  4.3169e-05  5.0388e-04  3.3126e+02  0:00:47  100
   251  6.0811e-04  7.5824e-06  8.3643e-06  3.9305e-06  1.1166e-06  4.2417e-05  4.9543e-04  3.3126e+02  0:00:38   99
   252  5.9971e-04  7.4863e-06  8.2533e-06  3.8704e-06  1.0992e-06  4.1775e-05  4.8747e-04  3.3126e+02  0:00:30   98
   253  5.9126e-04  7.3796e-06  8.1345e-06  3.8178e-06  1.0813e-06  4.1068e-05  4.7953e-04  3.3126e+02  0:00:43   97

  iter  continuity  x-velocity  y-velocity  z-velocity      energy           k     epsilon  outlet-tem     time/iter
   254  5.8296e-04  7.2850e-06  8.0266e-06  3.7585e-06  1.0635e-06  4.0394e-05  4.7174e-04  3.3126e+02  0:00:34   96
   255  5.7470e-04  7.1844e-06  7.9111e-06  3.7023e-06  1.0458e-06  3.9720e-05  4.6420e-04  3.3126e+02  0:00:27   95
   256  5.6655e-04  7.0875e-06  7.8005e-06  3.6459e-06  1.0282e-06  3.9057e-05  4.5679e-04  3.3126e+02  0:00:40   94
   257  5.5848e-04  6.9901e-06  7.6897e-06  3.5896e-06  1.0099e-06  3.8408e-05  4.4960e-04  3.3126e+02  0:00:32   93
   258  5.5053e-04  6.8986e-06  7.5828e-06  3.5316e-06  9.9331e-07  3.7844e-05  4.4290e-04  3.3126e+02  0:00:44   92
!  258 solution is converged
Performance profile written to C:/Users/Dell/AppData/Local/Temp/_ALI-DESKTOP_2568/run-information.txt
Performance profile written to C:/Users/Dell/AppData/Local/Temp/_ALI-DESKTOP_2568/run-information.txt

number tracked = 204, escaped = 204

Writing "C:/Users/Dell/AppData/Local/Temp/_ALI-DESKTOP_2568/scene-lic-temp_scene.avz" ...
Done.

Writing "C:/Users/Dell/AppData/Local/Temp/_ALI-DESKTOP_2568/scene-lic-vel_scene.avz" ...
Done.

Writing "C:/Users/Dell/AppData/Local/Temp/_ALI-DESKTOP_2568/scene-vectors_scene.avz" ...
Done.

number tracked = 204, escaped = 204

number tracked = 204, escaped = 204

Writing "C:/Users/Dell/AppData/Local/Temp/_ALI-DESKTOP_2568/scene-pathlines-temp_scene.avz" ...
Done.

Writing "C:/Users/Dell/AppData/Local/Temp/_ALI-DESKTOP_2568/scene-vel-inlet-plane_scene.avz" ...
Done.

Writing "C:/Users/Dell/AppData/Local/Temp/_ALI-DESKTOP_2568/scene-temp-walls_scene.avz" ...
Done.

Writing "C:/Users/Dell/AppData/Local/Temp/_ALI-DESKTOP_2568/scene-temp-inlet-plane_scene.avz" ...
Done.

Writing to ALI-DESKTOP:"D:/HPC Workshop/Ansys Cases/parametric_mixer/parametric_ansys_project/Static_Mixer.cffdb\Static_Mixer-Solve\DP1\Static_Mixer.cas.h5" in NODE0 mode and compression level 1 ...
Grouping cells for Laplace smoothing ...
       22771 cells,     1 zone  ...
      119140 faces,     5 zones ...
       82247 nodes,     1 zone  ...
  Done.
Done.

Writing to ALI-DESKTOP:"D:/HPC Workshop/Ansys Cases/parametric_mixer/parametric_ansys_project/Static_Mixer.cffdb\Static_Mixer-Solve\DP1\Static_Mixer.dat.h5" in NODE0 mode and compression level 1 ...
  Writing results.
Done.

Transcript closed.

Opening input/output transcript to file "D:/HPC Workshop/Ansys Cases/parametric_mixer/parametric_ansys_project/Static_Mixer.cffdb/Static_Mixer-Solve/DP2\Auto-generated-transcript.trn".
Multicore SMT processors detected. Processor affinity set!

       Clearing partially read grid.

Reading from ALI-DESKTOP:"D:/HPC Workshop/Ansys Cases/parametric_mixer/parametric_ansys_project/Static_Mixer.cffdb\Static_Mixer-Solve\BaseCases\Static_Mixer.cas.h5" in NODE0 mode ...
  Reading mesh ...
       22771 cells,     1 cell zone  ...
          22771 polyhedra cells,  zone id: 97
      119140 faces,     5 face zones ...
         114959 polygonal interior faces,  zone id: 96
           3873 polygonal wall faces,  zone id: 20
            104 polygonal pressure-outlet faces,  zone id: 19
            103 polygonal velocity-inlet faces,  zone id: 18
            101 polygonal velocity-inlet faces,  zone id: 17
       82247 nodes,     1 node zone  ...
  Done.


Building...
     mesh
	distributing mesh
		parts....,
		faces....,
		nodes....,
		cells....,
        bandwidth reduction using Reverse Cuthill-McKee: 5673/485 = 11.6969
     materials,
     interface,
     domains,
	mixture
     zones,
	interior--fluid
	wall
	outlet
	inlet2
	inlet1
	fluid
     parallel,
Done.

Applying input parameter values ...


  iter  continuity  x-velocity  y-velocity  z-velocity      energy           k     epsilon  outlet-tem     time/iter

 Reversed flow on 11 faces (20.3% area) of pressure-outlet 19.
     1  1.0000e+00  1.8310e-03  7.8681e-03  6.9536e-04  1.0093e-03  1.7377e-01  6.5037e+01  3.0000e+02  0:05:49  349

 Reversed flow on 7 faces (3.7% area) of pressure-outlet 19.
     2  8.8245e-01  1.0263e-02  6.8469e-02  1.1843e-02  1.1149e-03  1.3220e-01  3.5890e-01  3.0006e+02  0:05:48  348

 Reversed flow on 3 faces (1.6% area) of pressure-outlet 19.
     3  6.3555e-01  7.5502e-03  4.3883e-02  8.2424e-03  1.2178e-03  8.9509e-02  3.8341e-01  3.0054e+02  0:05:47  347
     4  5.4840e-01  4.2557e-03  2.1485e-02  4.8441e-03  1.1816e-03  8.2197e-02  6.2033e-01  3.0256e+02  0:04:37  346
     5  4.8257e-01  3.0376e-03  1.1564e-02  2.7122e-03  9.7621e-04  6.7198e-02  1.0902e+00  3.0483e+02  0:04:50  345
     6  3.7878e-01  2.3927e-03  6.4480e-03  1.9884e-03  7.9388e-04  5.2493e-02  1.3291e+00  3.0695e+02  0:03:51  344
     7  2.8278e-01  2.0118e-03  4.0427e-03  1.5227e-03  6.5699e-04  3.8638e-02  1.1599e+00  3.0905e+02  0:03:04  343
     8  2.0205e-01  1.7261e-03  2.8595e-03  1.2626e-03  5.6416e-04  2.7272e-02  8.5888e-01  3.1102e+02  0:03:35  342
     9  1.4256e-01  1.4998e-03  2.2149e-03  1.0397e-03  4.8820e-04  1.8793e-02  5.8867e-01  3.1284e+02  0:02:52  341
    10  1.0162e-01  1.3207e-03  1.8323e-03  8.6973e-04  4.3232e-04  1.2784e-02  3.8459e-01  3.1443e+02  0:03:25  340
    11  7.8870e-02  1.1828e-03  1.5908e-03  7.1794e-04  3.7758e-04  8.5625e-03  2.4011e-01  3.1586e+02  0:02:44  339

  iter  continuity  x-velocity  y-velocity  z-velocity      energy           k     epsilon  outlet-tem     time/iter
    12  6.7409e-02  1.0822e-03  1.4294e-03  6.2079e-04  3.2841e-04  5.7707e-03  1.4067e-01  3.1706e+02  0:03:18  338
    13  6.0641e-02  1.0112e-03  1.3150e-03  5.5826e-04  2.8820e-04  4.2750e-03  7.5875e-02  3.1810e+02  0:02:38  337
    14  5.4874e-02  9.6597e-04  1.2278e-03  5.1070e-04  2.5627e-04  3.6362e-03  4.7633e-02  3.1898e+02  0:03:13  336
    15  4.9909e-02  9.3254e-04  1.1575e-03  4.7937e-04  2.3159e-04  3.3535e-03  3.9746e-02  3.1974e+02  0:02:34  335
    16  4.5946e-02  9.0323e-04  1.0970e-03  4.5180e-04  2.1104e-04  3.2205e-03  3.9464e-02  3.2040e+02  0:03:10  334
    17  4.3197e-02  8.7426e-04  1.0453e-03  4.3280e-04  1.9394e-04  3.1155e-03  4.0569e-02  3.2098e+02  0:02:31  333
    18  4.1424e-02  8.4339e-04  9.9631e-04  4.1484e-04  1.7885e-04  3.0114e-03  4.1052e-02  3.2149e+02  0:02:01  332
    19  4.0186e-02  8.1169e-04  9.4970e-04  3.9956e-04  1.6547e-04  2.9199e-03  4.0423e-02  3.2197e+02  0:02:42  331
    20  3.9253e-02  7.8174e-04  9.0526e-04  3.8245e-04  1.5366e-04  2.8240e-03  3.8911e-02  3.2241e+02  0:02:10  330
    21  3.8484e-02  7.5156e-04  8.6333e-04  3.6380e-04  1.4314e-04  2.7178e-03  3.6764e-02  3.2282e+02  0:02:49  329
    22  3.7546e-02  7.2019e-04  8.2233e-04  3.4923e-04  1.3345e-04  2.5922e-03  3.3971e-02  3.2322e+02  0:02:15  328

  iter  continuity  x-velocity  y-velocity  z-velocity      energy           k     epsilon  outlet-tem     time/iter
    23  3.6513e-02  6.8883e-04  7.8261e-04  3.3180e-04  1.2447e-04  2.4512e-03  3.1041e-02  3.2360e+02  0:02:53  327
    24  3.5389e-02  6.5691e-04  7.4384e-04  3.1653e-04  1.1619e-04  2.3127e-03  2.8285e-02  3.2397e+02  0:03:23  326
    25  3.4129e-02  6.2609e-04  7.0783e-04  3.0016e-04  1.0867e-04  2.2031e-03  2.6153e-02  3.2432e+02  0:02:42  325
    26  3.2778e-02  5.9537e-04  6.7330e-04  2.8583e-04  1.0168e-04  2.1005e-03  2.4444e-02  3.2466e+02  0:03:14  324
    27  3.1554e-02  5.6590e-04  6.4020e-04  2.7242e-04  9.5341e-05  2.0055e-03  2.2950e-02  3.2499e+02  0:02:35  323
    28  3.0446e-02  5.3806e-04  6.0848e-04  2.5926e-04  8.9003e-05  1.9160e-03  2.1522e-02  3.2530e+02  0:03:08  322
    29  2.9370e-02  5.1188e-04  5.7826e-04  2.4682e-04  8.3137e-05  1.8373e-03  2.0236e-02  3.2560e+02  0:03:34  321
    30  2.8325e-02  4.8674e-04  5.4960e-04  2.3609e-04  7.7809e-05  1.7644e-03  1.9058e-02  3.2588e+02  0:02:51  320
    31  2.7347e-02  4.6308e-04  5.2317e-04  2.2600e-04  7.2738e-05  1.6911e-03  1.7924e-02  3.2616e+02  0:03:20  319
    32  2.6372e-02  4.4062e-04  4.9823e-04  2.1565e-04  6.7835e-05  1.6235e-03  1.6916e-02  3.2642e+02  0:02:39  318
    33  2.5378e-02  4.1825e-04  4.7372e-04  2.0635e-04  6.3271e-05  1.5538e-03  1.5974e-02  3.2666e+02  0:03:11  317

  iter  continuity  x-velocity  y-velocity  z-velocity      energy           k     epsilon  outlet-tem     time/iter
    34  2.4423e-02  3.9766e-04  4.5075e-04  1.9619e-04  5.9047e-05  1.4911e-03  1.5174e-02  3.2690e+02  0:02:32  316
    35  2.3505e-02  3.7716e-04  4.2831e-04  1.8706e-04  5.5007e-05  1.4351e-03  1.4483e-02  3.2712e+02  0:03:04  315
    36  2.2591e-02  3.5790e-04  4.0672e-04  1.7766e-04  5.1247e-05  1.3868e-03  1.3902e-02  3.2733e+02  0:03:30  314
    37  2.1673e-02  3.3952e-04  3.8574e-04  1.6804e-04  4.7709e-05  1.3452e-03  1.3442e-02  3.2752e+02  0:02:47  313
    38  2.0768e-02  3.2128e-04  3.6503e-04  1.5944e-04  4.4510e-05  1.3010e-03  1.3041e-02  3.2770e+02  0:03:16  312
    39  1.9933e-02  3.0561e-04  3.4614e-04  1.4967e-04  4.1584e-05  1.2669e-03  1.2733e-02  3.2787e+02  0:02:36  311
    40  1.9094e-02  2.8981e-04  3.2775e-04  1.4123e-04  3.8885e-05  1.2338e-03  1.2520e-02  3.2803e+02  0:03:06  310
    41  1.8273e-02  2.7529e-04  3.1071e-04  1.3303e-04  3.6516e-05  1.2007e-03  1.2361e-02  3.2817e+02  0:02:29  309
    42  1.7489e-02  2.6207e-04  2.9460e-04  1.2499e-04  3.4502e-05  1.1656e-03  1.2243e-02  3.2830e+02  0:03:00  308
    43  1.6766e-02  2.4963e-04  2.7998e-04  1.1797e-04  3.2764e-05  1.1289e-03  1.2109e-02  3.2842e+02  0:02:24  307
    44  1.6063e-02  2.3810e-04  2.6676e-04  1.1197e-04  3.1276e-05  1.0942e-03  1.1963e-02  3.2853e+02  0:02:56  306

  iter  continuity  x-velocity  y-velocity  z-velocity      energy           k     epsilon  outlet-tem     time/iter
    45  1.5456e-02  2.2771e-04  2.5479e-04  1.0619e-04  2.9981e-05  1.0632e-03  1.1808e-02  3.2862e+02  0:02:20  305
    46  1.4898e-02  2.1818e-04  2.4369e-04  1.0107e-04  2.8772e-05  1.0383e-03  1.1671e-02  3.2871e+02  0:02:53  304
    47  1.4380e-02  2.0960e-04  2.3342e-04  9.6690e-05  2.7685e-05  1.0145e-03  1.1520e-02  3.2878e+02  0:02:18  303
    48  1.3853e-02  2.0109e-04  2.2363e-04  9.2922e-05  2.6598e-05  9.9651e-04  1.1350e-02  3.2885e+02  0:02:50  302
    49  1.3314e-02  1.9337e-04  2.1472e-04  8.9571e-05  2.5560e-05  9.7450e-04  1.1107e-02  3.2890e+02  0:02:16  301
    50  1.2862e-02  1.8609e-04  2.0629e-04  8.6606e-05  2.4485e-05  9.4625e-04  1.0814e-02  3.2895e+02  0:02:48  300
    51  1.2445e-02  1.7896e-04  1.9801e-04  8.4028e-05  2.3318e-05  9.1189e-04  1.0482e-02  3.2899e+02  0:02:14  299
    52  1.2085e-02  1.7257e-04  1.9001e-04  8.1592e-05  2.1696e-05  8.7142e-04  1.0091e-02  3.2902e+02  0:02:46  298
    53  1.1714e-02  1.6618e-04  1.8206e-04  7.9241e-05  2.0629e-05  8.2747e-04  9.6477e-03  3.2904e+02  0:02:13  297
    54  1.1317e-02  1.5966e-04  1.7423e-04  7.6946e-05  1.9158e-05  7.8070e-04  9.1750e-03  3.2906e+02  0:02:45  296
    55  1.0929e-02  1.5348e-04  1.6673e-04  7.4335e-05  1.8105e-05  7.3506e-04  8.6783e-03  3.2908e+02  0:02:12  295

  iter  continuity  x-velocity  y-velocity  z-velocity      energy           k     epsilon  outlet-tem     time/iter
    56  1.0555e-02  1.4733e-04  1.5930e-04  7.1549e-05  1.7122e-05  6.9193e-04  8.1740e-03  3.2908e+02  0:02:44  294
    57  1.0174e-02  1.4134e-04  1.5229e-04  6.8677e-05  1.6228e-05  6.5202e-04  7.6644e-03  3.2909e+02  0:02:11  293
    58  9.7959e-03  1.3574e-04  1.4582e-04  6.5616e-05  1.5464e-05  6.1617e-04  7.1735e-03  3.2909e+02  0:03:41  292
    59  9.4340e-03  1.3042e-04  1.4001e-04  6.2496e-05  1.4908e-05  5.8620e-04  6.7448e-03  3.2909e+02  0:02:56  291
    60  9.0780e-03  1.2525e-04  1.3475e-04  5.9586e-05  1.4500e-05  5.5872e-04  6.3552e-03  3.2909e+02  0:03:18  290
    61  8.7491e-03  1.2061e-04  1.3043e-04  5.6646e-05  1.3997e-05  5.3563e-04  6.0240e-03  3.2908e+02  0:03:36  289
    62  8.4516e-03  1.1634e-04  1.2653e-04  5.3964e-05  1.3922e-05  5.1741e-04  5.7583e-03  3.2908e+02  0:02:52  288
    63  8.1700e-03  1.1225e-04  1.2300e-04  5.1794e-05  1.3916e-05  5.0332e-04  5.5380e-03  3.2908e+02  0:03:15  287
    64  7.9167e-03  1.0872e-04  1.2005e-04  4.9779e-05  1.3691e-05  4.9337e-04  5.3526e-03  3.2907e+02  0:02:35  286
    65  7.6955e-03  1.0543e-04  1.1725e-04  4.8098e-05  1.3550e-05  4.8612e-04  5.2104e-03  3.2907e+02  0:03:01  285
    66  7.4851e-03  1.0235e-04  1.1456e-04  4.6845e-05  1.3476e-05  4.8086e-04  5.1010e-03  3.2906e+02  0:02:24  284

  iter  continuity  x-velocity  y-velocity  z-velocity      energy           k     epsilon  outlet-tem     time/iter
    67  7.3095e-03  9.9609e-05  1.1204e-04  4.5920e-05  1.3412e-05  4.7545e-04  5.0010e-03  3.2906e+02  0:02:51  283
    68  7.1607e-03  9.7214e-05  1.0971e-04  4.5038e-05  1.3336e-05  4.6960e-04  4.9068e-03  3.2905e+02  0:02:17  282
    69  7.0276e-03  9.4935e-05  1.0738e-04  4.4497e-05  1.3417e-05  4.6263e-04  4.8192e-03  3.2905e+02  0:02:45  281
    70  6.9171e-03  9.3077e-05  1.0521e-04  4.3973e-05  1.3310e-05  4.5856e-04  4.7594e-03  3.2905e+02  0:02:12  280
    71  6.7884e-03  9.1092e-05  1.0286e-04  4.3742e-05  1.3141e-05  4.5303e-04  4.6994e-03  3.2905e+02  0:02:41  279
    72  6.6850e-03  8.9558e-05  1.0083e-04  4.3435e-05  1.2971e-05  4.4746e-04  4.6485e-03  3.2905e+02  0:02:08  278
    73  6.5915e-03  8.7960e-05  9.8626e-05  4.3268e-05  1.2814e-05  4.4182e-04  4.6084e-03  3.2905e+02  0:02:38  277
    74  6.4998e-03  8.6529e-05  9.6591e-05  4.3202e-05  1.2817e-05  4.3575e-04  4.5572e-03  3.2905e+02  0:02:06  276
    75  6.4164e-03  8.5202e-05  9.4682e-05  4.3062e-05  1.2594e-05  4.2935e-04  4.4891e-03  3.2905e+02  0:02:35  275
    76  6.3393e-03  8.3886e-05  9.2770e-05  4.2829e-05  1.2360e-05  4.2388e-04  4.4111e-03  3.2906e+02  0:02:04  274
    77  6.2634e-03  8.2501e-05  9.0943e-05  4.2575e-05  1.2101e-05  4.1712e-04  4.3227e-03  3.2906e+02  0:02:33  273

  iter  continuity  x-velocity  y-velocity  z-velocity      energy           k     epsilon  outlet-tem     time/iter
    78  6.1970e-03  8.1210e-05  8.9286e-05  4.2176e-05  1.1861e-05  4.1144e-04  4.2340e-03  3.2907e+02  0:02:56  272
    79  6.1172e-03  7.9757e-05  8.7454e-05  4.1751e-05  1.1608e-05  4.0477e-04  4.1452e-03  3.2907e+02  0:02:21  271
    80  6.0274e-03  7.8413e-05  8.5912e-05  4.1200e-05  1.1349e-05  3.9863e-04  4.0616e-03  3.2908e+02  0:02:46  270
    81  5.9390e-03  7.7090e-05  8.4379e-05  4.0585e-05  1.1098e-05  3.9323e-04  3.9932e-03  3.2908e+02  0:02:12  269
    82  5.8400e-03  7.5737e-05  8.2856e-05  3.9945e-05  1.0849e-05  3.8871e-04  3.9339e-03  3.2909e+02  0:02:39  268
    83  5.7450e-03  7.4363e-05  8.1407e-05  3.9322e-05  1.0594e-05  3.8266e-04  3.8679e-03  3.2909e+02  0:02:07  267
    84  5.6527e-03  7.3098e-05  8.0084e-05  3.8612e-05  1.0351e-05  3.7694e-04  3.8014e-03  3.2910e+02  0:02:34  266
    85  5.5615e-03  7.1790e-05  7.8699e-05  3.7952e-05  1.0110e-05  3.7211e-04  3.7365e-03  3.2910e+02  0:02:03  265
    86  5.4660e-03  7.0547e-05  7.7431e-05  3.7270e-05  9.8854e-06  3.6650e-04  3.6704e-03  3.2911e+02  0:02:31  264
    87  5.3656e-03  6.9295e-05  7.6193e-05  3.6594e-05  9.6637e-06  3.6037e-04  3.6020e-03  3.2911e+02  0:02:00  263
    88  5.2710e-03  6.8090e-05  7.5024e-05  3.5931e-05  9.4555e-06  3.5409e-04  3.5351e-03  3.2911e+02  0:02:28  262

  iter  continuity  x-velocity  y-velocity  z-velocity      energy           k     epsilon  outlet-tem     time/iter
    89  5.1768e-03  6.6913e-05  7.3830e-05  3.5282e-05  9.2607e-06  3.4831e-04  3.4727e-03  3.2912e+02  0:01:58  261
    90  5.0854e-03  6.5765e-05  7.2674e-05  3.4658e-05  9.0729e-06  3.4155e-04  3.4060e-03  3.2912e+02  0:02:26  260
    91  4.9925e-03  6.4697e-05  7.1568e-05  3.4019e-05  8.8880e-06  3.3406e-04  3.3348e-03  3.2913e+02  0:01:56  259
    92  4.9059e-03  6.3655e-05  7.0448e-05  3.3410e-05  8.6969e-06  3.2654e-04  3.2639e-03  3.2913e+02  0:02:24  258
    93  4.8272e-03  6.2674e-05  6.9379e-05  3.2801e-05  8.5257e-06  3.2023e-04  3.2034e-03  3.2914e+02  0:02:46  257
    94  4.7424e-03  6.1618e-05  6.8250e-05  3.2269e-05  8.3490e-06  3.1338e-04  3.1447e-03  3.2914e+02  0:02:13  256
    95  4.6629e-03  6.0694e-05  6.7252e-05  3.1692e-05  8.1798e-06  3.0737e-04  3.0947e-03  3.2914e+02  0:02:37  255
    96  4.5872e-03  5.9730e-05  6.6144e-05  3.1173e-05  8.0156e-06  3.0045e-04  3.0488e-03  3.2915e+02  0:02:05  254
    97  4.5148e-03  5.8819e-05  6.5107e-05  3.0643e-05  7.8605e-06  2.9409e-04  3.0107e-03  3.2915e+02  0:02:30  253
    98  4.4419e-03  5.7878e-05  6.4019e-05  3.0149e-05  7.7184e-06  2.8789e-04  2.9776e-03  3.2916e+02  0:02:00  252
    99  4.3733e-03  5.6966e-05  6.2961e-05  2.9682e-05  7.5741e-06  2.8193e-04  2.9452e-03  3.2916e+02  0:02:26  251

  iter  continuity  x-velocity  y-velocity  z-velocity      energy           k     epsilon  outlet-tem     time/iter
   100  4.3107e-03  5.6092e-05  6.1897e-05  2.9197e-05  7.4302e-06  2.7650e-04  2.9153e-03  3.2917e+02  0:01:56  250
   101  4.2510e-03  5.5223e-05  6.0811e-05  2.8711e-05  7.2948e-06  2.7156e-04  2.8927e-03  3.2917e+02  0:02:22  249
   102  4.1900e-03  5.4336e-05  5.9710e-05  2.8235e-05  7.1681e-06  2.6686e-04  2.8722e-03  3.2918e+02  0:01:53  248
   103  4.1262e-03  5.3438e-05  5.8586e-05  2.7766e-05  7.0372e-06  2.6205e-04  2.8527e-03  3.2918e+02  0:02:20  247
   104  4.0653e-03  5.2581e-05  5.7524e-05  2.7250e-05  6.9109e-06  2.5731e-04  2.8334e-03  3.2919e+02  0:01:51  246
   105  4.0037e-03  5.1709e-05  5.6444e-05  2.6765e-05  6.7930e-06  2.5294e-04  2.8144e-03  3.2920e+02  0:02:18  245
   106  3.9391e-03  5.0842e-05  5.5383e-05  2.6307e-05  6.6758e-06  2.4858e-04  2.7940e-03  3.2920e+02  0:01:50  244
   107  3.8750e-03  4.9998e-05  5.4366e-05  2.5819e-05  6.5625e-06  2.4438e-04  2.7714e-03  3.2921e+02  0:01:27  243
   108  3.8151e-03  4.9134e-05  5.3322e-05  2.5330e-05  6.4494e-06  2.4038e-04  2.7499e-03  3.2922e+02  0:01:58  242
   109  3.7549e-03  4.8294e-05  5.2325e-05  2.4823e-05  6.3321e-06  2.3625e-04  2.7281e-03  3.2922e+02  0:01:34  241
   110  3.6951e-03  4.7449e-05  5.1350e-05  2.4299e-05  6.2164e-06  2.3249e-04  2.7042e-03  3.2923e+02  0:02:03  240

  iter  continuity  x-velocity  y-velocity  z-velocity      energy           k     epsilon  outlet-tem     time/iter
   111  3.6334e-03  4.6585e-05  5.0383e-05  2.3778e-05  6.1121e-06  2.2921e-04  2.6765e-03  3.2924e+02  0:01:38  239
   112  3.5681e-03  4.5726e-05  4.9443e-05  2.3273e-05  6.0080e-06  2.2556e-04  2.6446e-03  3.2924e+02  0:02:06  238
   113  3.5073e-03  4.4910e-05  4.8570e-05  2.2723e-05  5.9018e-06  2.2225e-04  2.6107e-03  3.2925e+02  0:01:40  237
   114  3.4451e-03  4.4063e-05  4.7679e-05  2.2198e-05  5.7965e-06  2.1896e-04  2.5846e-03  3.2926e+02  0:01:20  236
   115  3.3843e-03  4.3247e-05  4.6845e-05  2.1679e-05  5.6873e-06  2.1559e-04  2.5609e-03  3.2926e+02  0:01:50  235
   116  3.3279e-03  4.2461e-05  4.6034e-05  2.1157e-05  5.5852e-06  2.1277e-04  2.5370e-03  3.2927e+02  0:01:28  234
   117  3.2717e-03  4.1669e-05  4.5222e-05  2.0680e-05  5.4853e-06  2.0992e-04  2.5149e-03  3.2928e+02  0:01:10  233
   118  3.2187e-03  4.0924e-05  4.4473e-05  2.0203e-05  5.3879e-06  2.0724e-04  2.4936e-03  3.2928e+02  0:01:42  232
   119  3.1655e-03  4.0181e-05  4.3727e-05  1.9751e-05  5.2959e-06  2.0456e-04  2.4726e-03  3.2929e+02  0:01:21  231
   120  3.1122e-03  3.9463e-05  4.3011e-05  1.9312e-05  5.2132e-06  2.0196e-04  2.4500e-03  3.2930e+02  0:01:51  230
   121  3.0568e-03  3.8742e-05  4.2289e-05  1.8904e-05  5.1310e-06  1.9929e-04  2.4266e-03  3.2930e+02  0:01:28  229

  iter  continuity  x-velocity  y-velocity  z-velocity      energy           k     epsilon  outlet-tem     time/iter
   122  3.0034e-03  3.8073e-05  4.1629e-05  1.8496e-05  5.0526e-06  1.9678e-04  2.4029e-03  3.2931e+02  0:01:56  228
   123  2.9519e-03  3.7404e-05  4.0956e-05  1.8109e-05  4.9787e-06  1.9440e-04  2.3778e-03  3.2931e+02  0:01:32  227
   124  2.9032e-03  3.6757e-05  4.0314e-05  1.7747e-05  4.9060e-06  1.9193e-04  2.3503e-03  3.2932e+02  0:01:59  226
   125  2.8550e-03  3.6132e-05  3.9697e-05  1.7403e-05  4.8360e-06  1.8930e-04  2.3217e-03  3.2932e+02  0:01:35  225
   126  2.8088e-03  3.5546e-05  3.9106e-05  1.7062e-05  4.7731e-06  1.8698e-04  2.2921e-03  3.2933e+02  0:01:15  224
   127  2.7635e-03  3.4942e-05  3.8500e-05  1.6764e-05  4.7083e-06  1.8456e-04  2.2627e-03  3.2933e+02  0:01:45  223
   128  2.7206e-03  3.4394e-05  3.7955e-05  1.6451e-05  4.6472e-06  1.8223e-04  2.2318e-03  3.2934e+02  0:01:23  222
   129  2.6787e-03  3.3829e-05  3.7391e-05  1.6180e-05  4.5853e-06  1.7982e-04  2.2020e-03  3.2934e+02  0:01:51  221
   130  2.6398e-03  3.3326e-05  3.6882e-05  1.5905e-05  4.5257e-06  1.7755e-04  2.1740e-03  3.2934e+02  0:01:28  220
   131  2.6028e-03  3.2823e-05  3.6357e-05  1.5650e-05  4.4746e-06  1.7570e-04  2.1478e-03  3.2935e+02  0:01:10  219
   132  2.5652e-03  3.2303e-05  3.5824e-05  1.5449e-05  4.4168e-06  1.7360e-04  2.1226e-03  3.2935e+02  0:01:39  218

  iter  continuity  x-velocity  y-velocity  z-velocity      energy           k     epsilon  outlet-tem     time/iter
   133  2.5322e-03  3.1864e-05  3.5363e-05  1.5180e-05  4.3660e-06  1.7204e-04  2.0971e-03  3.2935e+02  0:01:19  217
   134  2.4990e-03  3.1368e-05  3.4838e-05  1.4974e-05  4.3148e-06  1.7020e-04  2.0721e-03  3.2936e+02  0:01:46  216
   135  2.4674e-03  3.0940e-05  3.4385e-05  1.4736e-05  4.2663e-06  1.6847e-04  2.0459e-03  3.2936e+02  0:01:25  215
   136  2.4359e-03  3.0495e-05  3.3906e-05  1.4532e-05  4.2144e-06  1.6645e-04  2.0217e-03  3.2936e+02  0:01:50  214
   137  2.4071e-03  3.0107e-05  3.3481e-05  1.4306e-05  4.1641e-06  1.6461e-04  2.0009e-03  3.2937e+02  0:01:28  213
   138  2.3772e-03  2.9696e-05  3.3035e-05  1.4105e-05  4.1150e-06  1.6315e-04  1.9844e-03  3.2937e+02  0:01:52  212
   139  2.3484e-03  2.9307e-05  3.2619e-05  1.3913e-05  4.0702e-06  1.6178e-04  1.9694e-03  3.2937e+02  0:02:12  211
   140  2.3187e-03  2.8923e-05  3.2211e-05  1.3733e-05  4.0257e-06  1.6034e-04  1.9544e-03  3.2937e+02  0:01:45  210
   141  2.2916e-03  2.8556e-05  3.1813e-05  1.3555e-05  3.9826e-06  1.5873e-04  1.9384e-03  3.2938e+02  0:02:05  209
   142  2.2644e-03  2.8190e-05  3.1415e-05  1.3383e-05  3.9380e-06  1.5713e-04  1.9233e-03  3.2938e+02  0:02:21  208
   143  2.2365e-03  2.7844e-05  3.1037e-05  1.3203e-05  3.9007e-06  1.5584e-04  1.9071e-03  3.2938e+02  0:01:52  207

  iter  continuity  x-velocity  y-velocity  z-velocity      energy           k     epsilon  outlet-tem     time/iter
   144  2.2087e-03  2.7466e-05  3.0638e-05  1.3062e-05  3.8575e-06  1.5420e-04  1.8916e-03  3.2938e+02  0:02:11  206
   145  2.1852e-03  2.7162e-05  3.0302e-05  1.2870e-05  3.8210e-06  1.5304e-04  1.8768e-03  3.2939e+02  0:01:44  205
   146  2.1597e-03  2.6794e-05  2.9901e-05  1.2724e-05  3.7844e-06  1.5179e-04  1.8630e-03  3.2939e+02  0:02:04  204
   147  2.1332e-03  2.6470e-05  2.9551e-05  1.2571e-05  3.7442e-06  1.5038e-04  1.8488e-03  3.2939e+02  0:01:38  203
   148  2.1095e-03  2.6149e-05  2.9199e-05  1.2412e-05  3.7100e-06  1.4916e-04  1.8334e-03  3.2939e+02  0:01:59  202
   149  2.0849e-03  2.5813e-05  2.8835e-05  1.2279e-05  3.6698e-06  1.4765e-04  1.8166e-03  3.2939e+02  0:02:15  201
   150  2.0635e-03  2.5539e-05  2.8529e-05  1.2113e-05  3.6366e-06  1.4652e-04  1.7990e-03  3.2940e+02  0:02:27  200
   151  2.0402e-03  2.5193e-05  2.8157e-05  1.1990e-05  3.5979e-06  1.4508e-04  1.7831e-03  3.2940e+02  0:01:57  199
   152  2.0192e-03  2.4933e-05  2.7882e-05  1.1830e-05  3.5627e-06  1.4387e-04  1.7666e-03  3.2940e+02  0:01:33  198
   153  1.9982e-03  2.4615e-05  2.7540e-05  1.1706e-05  3.5287e-06  1.4255e-04  1.7507e-03  3.2940e+02  0:01:54  197
   154  1.9763e-03  2.4336e-05  2.7238e-05  1.1573e-05  3.4947e-06  1.4128e-04  1.7346e-03  3.2940e+02  0:01:30  196

  iter  continuity  x-velocity  y-velocity  z-velocity      energy           k     epsilon  outlet-tem     time/iter
   155  1.9545e-03  2.4058e-05  2.6931e-05  1.1446e-05  3.4614e-06  1.4002e-04  1.7180e-03  3.2940e+02  0:01:12  195
   156  1.9332e-03  2.3780e-05  2.6625e-05  1.1326e-05  3.4266e-06  1.3856e-04  1.7001e-03  3.2940e+02  0:01:36  194
   157  1.9139e-03  2.3518e-05  2.6334e-05  1.1194e-05  3.3940e-06  1.3728e-04  1.6805e-03  3.2941e+02  0:01:16  193
   158  1.8936e-03  2.3241e-05  2.6027e-05  1.1082e-05  3.3609e-06  1.3596e-04  1.6607e-03  3.2941e+02  0:01:39  192
   159  1.8728e-03  2.2986e-05  2.5744e-05  1.0951e-05  3.3266e-06  1.3454e-04  1.6409e-03  3.2941e+02  0:01:19  191
   160  1.8533e-03  2.2738e-05  2.5465e-05  1.0821e-05  3.2944e-06  1.3328e-04  1.6229e-03  3.2941e+02  0:01:03  190
   161  1.8334e-03  2.2477e-05  2.5177e-05  1.0712e-05  3.2635e-06  1.3197e-04  1.6055e-03  3.2941e+02  0:01:28  189
   162  1.8125e-03  2.2230e-05  2.4907e-05  1.0599e-05  3.2329e-06  1.3079e-04  1.5881e-03  3.2941e+02  0:01:10  188
   163  1.7936e-03  2.1983e-05  2.4632e-05  1.0493e-05  3.2028e-06  1.2945e-04  1.5714e-03  3.2941e+02  0:01:33  187
   164  1.7760e-03  2.1743e-05  2.4368e-05  1.0384e-05  3.1733e-06  1.2815e-04  1.5551e-03  3.2941e+02  0:01:14  186
   165  1.7584e-03  2.1508e-05  2.4104e-05  1.0281e-05  3.1422e-06  1.2687e-04  1.5384e-03  3.2941e+02  0:00:59  185

  iter  continuity  x-velocity  y-velocity  z-velocity      energy           k     epsilon  outlet-tem     time/iter
   166  1.7424e-03  2.1280e-05  2.3846e-05  1.0169e-05  3.1118e-06  1.2570e-04  1.5216e-03  3.2942e+02  0:01:24  184
   167  1.7251e-03  2.1037e-05  2.3577e-05  1.0079e-05  3.0806e-06  1.2435e-04  1.5040e-03  3.2942e+02  0:01:07  183
   168  1.7078e-03  2.0818e-05  2.3331e-05  9.9657e-06  3.0496e-06  1.2306e-04  1.4863e-03  3.2942e+02  0:01:29  182
   169  1.6895e-03  2.0591e-05  2.3075e-05  9.8649e-06  3.0194e-06  1.2181e-04  1.4693e-03  3.2942e+02  0:01:11  181
   170  1.6722e-03  2.0366e-05  2.2824e-05  9.7745e-06  2.9888e-06  1.2073e-04  1.4528e-03  3.2942e+02  0:00:57  180
   171  1.6543e-03  2.0145e-05  2.2577e-05  9.6817e-06  2.9581e-06  1.1956e-04  1.4363e-03  3.2942e+02  0:01:21  179
   172  1.6372e-03  1.9927e-05  2.2332e-05  9.5792e-06  2.9241e-06  1.1819e-04  1.4200e-03  3.2942e+02  0:01:04  178
   173  1.6223e-03  1.9738e-05  2.2111e-05  9.4567e-06  2.8937e-06  1.1696e-04  1.4050e-03  3.2942e+02  0:00:51  177
   174  1.6053e-03  1.9510e-05  2.1858e-05  9.3517e-06  2.8629e-06  1.1566e-04  1.3909e-03  3.2942e+02  0:01:16  176
   175  1.5876e-03  1.9311e-05  2.1636e-05  9.2450e-06  2.8330e-06  1.1435e-04  1.3763e-03  3.2942e+02  0:01:00  175
   176  1.5715e-03  1.9109e-05  2.1407e-05  9.1463e-06  2.8050e-06  1.1340e-04  1.3629e-03  3.2942e+02  0:01:23  174

  iter  continuity  x-velocity  y-velocity  z-velocity      energy           k     epsilon  outlet-tem     time/iter
   177  1.5542e-03  1.8898e-05  2.1172e-05  9.0618e-06  2.7764e-06  1.1231e-04  1.3505e-03  3.2942e+02  0:01:06  173
   178  1.5375e-03  1.8702e-05  2.0953e-05  8.9613e-06  2.7475e-06  1.1117e-04  1.3384e-03  3.2942e+02  0:00:52  172
   179  1.5210e-03  1.8497e-05  2.0723e-05  8.8627e-06  2.7192e-06  1.1004e-04  1.3271e-03  3.2942e+02  0:01:16  171
[...]
   122  3.8189e-03  4.4036e-05  4.8423e-05  1.6149e-05  5.3063e-06  2.2288e-04  2.9929e-03  3.2499e+02  0:01:21  228
   123  3.7631e-03  4.3358e-05  4.7678e-05  1.5862e-05  5.2121e-06  2.2017e-04  2.9698e-03  3.2499e+02  0:01:05  227
   124  3.7083e-03  4.2759e-05  4.7016e-05  1.5583e-05  5.1286e-06  2.1783e-04  2.9483e-03  3.2499e+02  0:01:37  226
   125  3.6523e-03  4.2109e-05  4.6314e-05  1.5384e-05  5.0437e-06  2.1515e-04  2.9268e-03  3.2499e+02  0:01:17  225
   126  3.6002e-03  4.1530e-05  4.5687e-05  1.5102e-05  4.9603e-06  2.1239e-04  2.9030e-03  3.2499e+02  0:01:46  224
   127  3.5523e-03  4.0940e-05  4.5042e-05  1.4831e-05  4.8852e-06  2.0989e-04  2.8796e-03  3.2499e+02  0:01:24  223
   128  3.5016e-03  4.0338e-05  4.4390e-05  1.4629e-05  4.8132e-06  2.0734e-04  2.8542e-03  3.2499e+02  0:01:07  222
   129  3.4524e-03  3.9767e-05  4.3770e-05  1.4421e-05  4.7363e-06  2.0482e-04  2.8267e-03  3.2499e+02  0:01:38  221
   130  3.4078e-03  3.9239e-05  4.3182e-05  1.4148e-05  4.6653e-06  2.0236e-04  2.8000e-03  3.2499e+02  0:01:18  220
   131  3.3624e-03  3.8666e-05  4.2554e-05  1.3943e-05  4.5948e-06  1.9980e-04  2.7763e-03  3.2499e+02  0:01:46  219
   132  3.3164e-03  3.8136e-05  4.1973e-05  1.3730e-05  4.5268e-06  1.9739e-04  2.7532e-03  3.2500e+02  0:01:24  218

  iter  continuity  x-velocity  y-velocity  z-velocity      energy           k     epsilon  outlet-tem     time/iter
   133  3.2738e-03  3.7622e-05  4.1411e-05  1.3507e-05  4.4664e-06  1.9509e-04  2.7279e-03  3.2500e+02  0:01:07  217
   134  3.2305e-03  3.7069e-05  4.0809e-05  1.3345e-05  4.4025e-06  1.9263e-04  2.6999e-03  3.2500e+02  0:01:37  216
   135  3.1882e-03  3.6582e-05  4.0272e-05  1.3131e-05  4.3450e-06  1.9033e-04  2.6681e-03  3.2500e+02  0:01:17  215
   136  3.1467e-03  3.6050e-05  3.9689e-05  1.2974e-05  4.2829e-06  1.8791e-04  2.6329e-03  3.2500e+02  0:01:01  214
   137  3.1078e-03  3.5567e-05  3.9154e-05  1.2759e-05  4.2257e-06  1.8586e-04  2.5951e-03  3.2500e+02  0:01:31  213
   138  3.0669e-03  3.5046e-05  3.8583e-05  1.2606e-05  4.1673e-06  1.8337e-04  2.5561e-03  3.2500e+02  0:01:13  212
   139  3.0256e-03  3.4556e-05  3.8047e-05  1.2443e-05  4.1132e-06  1.8086e-04  2.5139e-03  3.2500e+02  0:01:40  211
   140  2.9837e-03  3.4048e-05  3.7499e-05  1.2323e-05  4.0496e-06  1.7797e-04  2.4705e-03  3.2500e+02  0:01:20  210
   141  2.9446e-03  3.3608e-05  3.7014e-05  1.2057e-05  3.9909e-06  1.7542e-04  2.4291e-03  3.2500e+02  0:01:03  209
   142  2.9060e-03  3.3111e-05  3.6468e-05  1.1888e-05  3.9324e-06  1.7299e-04  2.3953e-03  3.2500e+02  0:01:32  208
   143  2.8676e-03  3.2668e-05  3.5982e-05  1.1709e-05  3.8749e-06  1.7079e-04  2.3665e-03  3.2500e+02  0:01:13  207

  iter  continuity  x-velocity  y-velocity  z-velocity      energy           k     epsilon  outlet-tem     time/iter
   144  2.8283e-03  3.2219e-05  3.5490e-05  1.1541e-05  3.8201e-06  1.6837e-04  2.3401e-03  3.2500e+02  0:00:58  206
   145  2.7884e-03  3.1772e-05  3.5000e-05  1.1386e-05  3.7647e-06  1.6603e-04  2.3142e-03  3.2500e+02  0:01:27  205
   146  2.7519e-03  3.1338e-05  3.4521e-05  1.1223e-05  3.7082e-06  1.6372e-04  2.2886e-03  3.2500e+02  0:01:10  204
   147  2.7159e-03  3.0916e-05  3.4053e-05  1.1049e-05  3.6523e-06  1.6149e-04  2.2637e-03  3.2500e+02  0:01:36  203
   148  2.6830e-03  3.0499e-05  3.3593e-05  1.0880e-05  3.5985e-06  1.5944e-04  2.2397e-03  3.2500e+02  0:01:16  202
   149  2.6486e-03  3.0080e-05  3.3137e-05  1.0724e-05  3.5464e-06  1.5748e-04  2.2162e-03  3.2500e+02  0:01:01  201
   150  2.6129e-03  2.9668e-05  3.2690e-05  1.0581e-05  3.4953e-06  1.5542e-04  2.1918e-03  3.2500e+02  0:01:28  200
   151  2.5781e-03  2.9265e-05  3.2254e-05  1.0430e-05  3.4498e-06  1.5338e-04  2.1653e-03  3.2500e+02  0:01:10  199
   152  2.5417e-03  2.8829e-05  3.1785e-05  1.0334e-05  3.4000e-06  1.5118e-04  2.1371e-03  3.2500e+02  0:01:36  198
   153  2.5085e-03  2.8444e-05  3.1371e-05  1.0152e-05  3.3512e-06  1.4914e-04  2.1101e-03  3.2500e+02  0:01:16  197
   154  2.4772e-03  2.8042e-05  3.0932e-05  9.9982e-06  3.3033e-06  1.4712e-04  2.0859e-03  3.2500e+02  0:01:01  196

  iter  continuity  x-velocity  y-velocity  z-velocity      energy           k     epsilon  outlet-tem     time/iter
   155  2.4425e-03  2.7651e-05  3.0504e-05  9.8597e-06  3.2549e-06  1.4530e-04  2.0647e-03  3.2500e+02  0:01:27  195
   156  2.4094e-03  2.7286e-05  3.0097e-05  9.7153e-06  3.2090e-06  1.4353e-04  2.0444e-03  3.2500e+02  0:01:09  194
   157  2.3764e-03  2.6907e-05  2.9679e-05  9.5853e-06  3.1668e-06  1.4179e-04  2.0228e-03  3.2500e+02  0:00:55  193
   158  2.3435e-03  2.6524e-05  2.9262e-05  9.4823e-06  3.1221e-06  1.3999e-04  1.9988e-03  3.2500e+02  0:01:22  192
   159  2.3124e-03  2.6168e-05  2.8872e-05  9.3408e-06  3.0834e-06  1.3818e-04  1.9709e-03  3.2500e+02  0:01:06  191
   160  2.2800e-03  2.5767e-05  2.8436e-05  9.2642e-06  3.0363e-06  1.3600e-04  1.9430e-03  3.2500e+02  0:01:30  190
   161  2.2503e-03  2.5444e-05  2.8077e-05  9.0762e-06  2.9972e-06  1.3403e-04  1.9152e-03  3.2500e+02  0:01:12  189
   162  2.2196e-03  2.5049e-05  2.7640e-05  8.9854e-06  2.9552e-06  1.3210e-04  1.8892e-03  3.2500e+02  0:00:57  188
   163  2.1896e-03  2.4719e-05  2.7272e-05  8.8493e-06  2.9121e-06  1.3032e-04  1.8641e-03  3.2500e+02  0:01:23  187
   164  2.1616e-03  2.4379e-05  2.6890e-05  8.7132e-06  2.8739e-06  1.2856e-04  1.8393e-03  3.2500e+02  0:01:06  186
   165  2.1316e-03  2.4022e-05  2.6497e-05  8.6204e-06  2.8323e-06  1.2665e-04  1.8157e-03  3.2500e+02  0:00:52  185

  iter  continuity  x-velocity  y-velocity  z-velocity      energy           k     epsilon  outlet-tem     time/iter
   166  2.1038e-03  2.3709e-05  2.6147e-05  8.4784e-06  2.7935e-06  1.2478e-04  1.7911e-03  3.2500e+02  0:01:19  184
   167  2.0759e-03  2.3364e-05  2.5765e-05  8.3744e-06  2.7521e-06  1.2303e-04  1.7677e-03  3.2500e+02  0:01:02  183
   168  2.0485e-03  2.3058e-05  2.5422e-05  8.2392e-06  2.7157e-06  1.2150e-04  1.7446e-03  3.2500e+02  0:01:26  182
   169  2.0196e-03  2.2712e-05  2.5043e-05  8.1558e-06  2.6787e-06  1.1982e-04  1.7219e-03  3.2500e+02  0:01:09  181
   170  1.9909e-03  2.2405e-05  2.4703e-05  8.0347e-06  2.6385e-06  1.1813e-04  1.6994e-03  3.2500e+02  0:00:55  180
   171  1.9654e-03  2.2101e-05  2.4362e-05  7.8967e-06  2.6058e-06  1.1663e-04  1.6781e-03  3.2500e+02  0:01:19  179
   172  1.9380e-03  2.1755e-05  2.3987e-05  7.8499e-06  2.5666e-06  1.1481e-04  1.6559e-03  3.2500e+02  0:01:03  178
   173  1.9125e-03  2.1484e-05  2.3684e-05  7.6836e-06  2.5300e-06  1.1319e-04  1.6334e-03  3.2500e+02  0:00:50  177
   174  1.8883e-03  2.1166e-05  2.3333e-05  7.5792e-06  2.4946e-06  1.1162e-04  1.6124e-03  3.2500e+02  0:01:15  176
   175  1.8627e-03  2.0872e-05  2.3008e-05  7.4772e-06  2.4586e-06  1.1007e-04  1.5916e-03  3.2500e+02  0:01:00  175
   176  1.8382e-03  2.0584e-05  2.2687e-05  7.3671e-06  2.4230e-06  1.0851e-04  1.5714e-03  3.2500e+02  0:01:22  174

  iter  continuity  x-velocity  y-velocity  z-velocity      energy           k     epsilon  outlet-tem     time/iter
   177  1.8139e-03  2.0303e-05  2.2373e-05  7.2535e-06  2.3883e-06  1.0695e-04  1.5523e-03  3.2500e+02  0:01:05  173
   178  1.7903e-03  2.0020e-05  2.2058e-05  7.1486e-06  2.3517e-06  1.0548e-04  1.5344e-03  3.2500e+02  0:00:52  172
   179  1.7675e-03  1.9751e-05  2.1758e-05  7.0312e-06  2.3201e-06  1.0407e-04  1.5173e-03  3.2500e+02  0:01:16  171
   180  1.7415e-03  1.9462e-05  2.1441e-05  6.9485e-06  2.2879e-06  1.0260e-04  1.4987e-03  3.2500e+02  0:01:00  170
   181  1.7160e-03  1.9196e-05  2.1148e-05  6.8546e-06  2.2546e-06  1.0108e-04  1.4779e-03  3.2500e+02  0:01:22  169
   182  1.6930e-03  1.8932e-05  2.0856e-05  6.7422e-06  2.2228e-06  9.9608e-05  1.4566e-03  3.2500e+02  0:01:05  168
   183  1.6705e-03  1.8662e-05  2.0558e-05  6.6478e-06  2.1919e-06  9.8120e-05  1.4354e-03  3.2500e+02  0:01:25  167
   184  1.6480e-03  1.8404e-05  2.0272e-05  6.5512e-06  2.1581e-06  9.6627e-05  1.4150e-03  3.2500e+02  0:01:08  166
   185  1.6273e-03  1.8168e-05  2.0006e-05  6.4388e-06  2.1306e-06  9.5176e-05  1.3953e-03  3.2500e+02  0:00:54  165
   186  1.6032e-03  1.7884e-05  1.9697e-05  6.3872e-06  2.1010e-06  9.3675e-05  1.3751e-03  3.2500e+02  0:01:16  164
   187  1.5804e-03  1.7649e-05  1.9439e-05  6.2855e-06  2.0705e-06  9.2213e-05  1.3532e-03  3.2500e+02  0:01:00  163

  iter  continuity  x-velocity  y-velocity  z-velocity      energy           k     epsilon  outlet-tem     time/iter
   188  1.5581e-03  1.7398e-05  1.9161e-05  6.1872e-06  2.0423e-06  9.0772e-05  1.3306e-03  3.2500e+02  0:01:20  162
   189  1.5361e-03  1.7142e-05  1.8882e-05  6.1157e-06  2.0111e-06  8.9329e-05  1.3085e-03  3.2500e+02  0:01:04  161
   190  1.5151e-03  1.6917e-05  1.8630e-05  6.0009e-06  1.9811e-06  8.8038e-05  1.2871e-03  3.2500e+02  0:00:51  160
   191  1.4943e-03  1.6672e-05  1.8358e-05  5.9153e-06  1.9497e-06  8.6708e-05  1.2676e-03  3.2500e+02  0:01:12  159
   192  1.4743e-03  1.6453e-05  1.8114e-05  5.8164e-06  1.9218e-06  8.5415e-05  1.2490e-03  3.2500e+02  0:01:29  158
   193  1.4531e-03  1.6212e-05  1.7851e-05  5.7470e-06  1.8948e-06  8.4099e-05  1.2303e-03  3.2500e+02  0:01:11  157
   194  1.4315e-03  1.5989e-05  1.7605e-05  5.6778e-06  1.8679e-06  8.2700e-05  1.2100e-03  3.2500e+02  0:00:56  156
   195  1.4121e-03  1.5767e-05  1.7361e-05  5.5902e-06  1.8395e-06  8.1338e-05  1.1891e-03  3.2500e+02  0:01:16  155
   196  1.3934e-03  1.5551e-05  1.7121e-05  5.4965e-06  1.8133e-06  8.0091e-05  1.1691e-03  3.2500e+02  0:01:00  154
   197  1.3735e-03  1.5323e-05  1.6872e-05  5.4323e-06  1.7852e-06  7.8863e-05  1.1507e-03  3.2500e+02  0:00:48  153
   198  1.3546e-03  1.5126e-05  1.6651e-05  5.3342e-06  1.7589e-06  7.7694e-05  1.1335e-03  3.2500e+02  0:01:08  152

  iter  continuity  x-velocity  y-velocity  z-velocity      energy           k     epsilon  outlet-tem     time/iter
   199  1.3360e-03  1.4910e-05  1.6412e-05  5.2587e-06  1.7298e-06  7.6524e-05  1.1185e-03  3.2500e+02  0:00:54  151
   200  1.3192e-03  1.4725e-05  1.6203e-05  5.1676e-06  1.7031e-06  7.5472e-05  1.1057e-03  3.2500e+02  0:01:13  150
   201  1.3018e-03  1.4519e-05  1.5974e-05  5.0917e-06  1.6778e-06  7.4422e-05  1.0942e-03  3.2500e+02  0:00:58  149
   202  1.2835e-03  1.4327e-05  1.5762e-05  5.0215e-06  1.6530e-06  7.3430e-05  1.0827e-03  3.2500e+02  0:00:46  148
   203  1.2649e-03  1.4135e-05  1.5549e-05  4.9499e-06  1.6289e-06  7.2375e-05  1.0696e-03  3.2500e+02  0:01:06  147
   204  1.2471e-03  1.3946e-05  1.5338e-05  4.8782e-06  1.6062e-06  7.1341e-05  1.0550e-03  3.2500e+02  0:00:53  146
   205  1.2292e-03  1.3749e-05  1.5121e-05  4.8165e-06  1.5838e-06  7.0290e-05  1.0394e-03  3.2500e+02  0:01:11  145
   206  1.2116e-03  1.3561e-05  1.4914e-05  4.7469e-06  1.5616e-06  6.9221e-05  1.0237e-03  3.2500e+02  0:00:56  144
   207  1.1949e-03  1.3374e-05  1.4707e-05  4.6782e-06  1.5398e-06  6.8184e-05  1.0083e-03  3.2500e+02  0:00:45  143
   208  1.1782e-03  1.3186e-05  1.4497e-05  4.6158e-06  1.5177e-06  6.7176e-05  9.9299e-04  3.2500e+02  0:01:04  142
   209  1.1615e-03  1.3003e-05  1.4294e-05  4.5483e-06  1.4954e-06  6.6186e-05  9.7824e-04  3.2500e+02  0:00:51  141

  iter  continuity  x-velocity  y-velocity  z-velocity      energy           k     epsilon  outlet-tem     time/iter
   210  1.1458e-03  1.2827e-05  1.4097e-05  4.4754e-06  1.4739e-06  6.5240e-05  9.6436e-04  3.2500e+02  0:00:40  140
   211  1.1302e-03  1.2649e-05  1.3899e-05  4.4105e-06  1.4523e-06  6.4279e-05  9.5147e-04  3.2500e+02  0:01:00  139
   212  1.1150e-03  1.2477e-05  1.3707e-05  4.3414e-06  1.4313e-06  6.3355e-05  9.3909e-04  3.2500e+02  0:00:48  138
   213  1.0991e-03  1.2302e-05  1.3515e-05  4.2847e-06  1.4119e-06  6.2424e-05  9.2642e-04  3.2500e+02  0:01:05  137
   214  1.0830e-03  1.2128e-05  1.3326e-05  4.2351e-06  1.3925e-06  6.1474e-05  9.1268e-04  3.2500e+02  0:00:52  136
   215  1.0677e-03  1.1961e-05  1.3142e-05  4.1716e-06  1.3735e-06  6.0535e-05  8.9938e-04  3.2500e+02  0:00:41  135
   216  1.0522e-03  1.1791e-05  1.2955e-05  4.1105e-06  1.3545e-06  5.9624e-05  8.8656e-04  3.2500e+02  0:00:59  134
   217  1.0375e-03  1.1625e-05  1.2771e-05  4.0498e-06  1.3363e-06  5.8780e-05  8.7391e-04  3.2500e+02  0:00:47  133
   218  1.0227e-03  1.1459e-05  1.2588e-05  3.9973e-06  1.3153e-06  5.7948e-05  8.6220e-04  3.2500e+02  0:01:04  132
   219  1.0093e-03  1.1316e-05  1.2424e-05  3.9174e-06  1.2969e-06  5.7214e-05  8.5108e-04  3.2500e+02  0:00:51  131
   220  9.9496e-04  1.1145e-05  1.2234e-05  3.8680e-06  1.2769e-06  5.6444e-05  8.4051e-04  3.2500e+02  0:01:06  130

  iter  continuity  x-velocity  y-velocity  z-velocity      energy           k     epsilon  outlet-tem     time/iter
   221  9.8134e-04  1.1007e-05  1.2077e-05  3.8020e-06  1.2589e-06  5.5670e-05  8.2972e-04  3.2500e+02  0:00:53  129
   222  9.6704e-04  1.0847e-05  1.1901e-05  3.7539e-06  1.2411e-06  5.4844e-05  8.1884e-04  3.2500e+02  0:00:42  128
   223  9.5312e-04  1.0703e-05  1.1740e-05  3.6988e-06  1.2233e-06  5.4032e-05  8.0727e-04  3.2500e+02  0:00:59  127
   224  9.3962e-04  1.0554e-05  1.1574e-05  3.6456e-06  1.2062e-06  5.3243e-05  7.9492e-04  3.2500e+02  0:00:46  126
   225  9.2639e-04  1.0407e-05  1.1411e-05  3.5962e-06  1.1892e-06  5.2415e-05  7.8212e-04  3.2500e+02  0:01:02  125
   226  9.1348e-04  1.0264e-05  1.1253e-05  3.5424e-06  1.1724e-06  5.1587e-05  7.6931e-04  3.2500e+02  0:00:49  124
   227  9.0104e-04  1.0121e-05  1.1096e-05  3.4904e-06  1.1555e-06  5.0775e-05  7.5707e-04  3.2500e+02  0:00:39  123
   228  8.8894e-04  9.9831e-06  1.0942e-05  3.4382e-06  1.1395e-06  4.9982e-05  7.4525e-04  3.2500e+02  0:00:55  122
   229  8.7638e-04  9.8405e-06  1.0786e-05  3.3946e-06  1.1232e-06  4.9174e-05  7.3329e-04  3.2500e+02  0:00:44  121
   230  8.6404e-04  9.7045e-06  1.0636e-05  3.3470e-06  1.1069e-06  4.8381e-05  7.2129e-04  3.2500e+02  0:00:59  120
   231  8.5195e-04  9.5683e-06  1.0486e-05  3.2980e-06  1.0897e-06  4.7598e-05  7.1009e-04  3.2500e+02  0:00:47  119

  iter  continuity  x-velocity  y-velocity  z-velocity      energy           k     epsilon  outlet-tem     time/iter
   232  8.4051e-04  9.4421e-06  1.0344e-05  3.2402e-06  1.0744e-06  4.6885e-05  6.9960e-04  3.2500e+02  0:00:37  118
   233  8.2845e-04  9.2999e-06  1.0189e-05  3.2038e-06  1.0583e-06  4.6162e-05  6.8952e-04  3.2500e+02  0:00:53  117
   234  8.1658e-04  9.1779e-06  1.0053e-05  3.1500e-06  1.0426e-06  4.5499e-05  6.7924e-04  3.2500e+02  0:00:42  116
   235  8.0510e-04  9.0465e-06  9.9076e-06  3.1043e-06  1.0269e-06  4.4818e-05  6.6903e-04  3.2500e+02  0:00:56  115
   236  7.9372e-04  8.9217e-06  9.7691e-06  3.0577e-06  1.0116e-06  4.4153e-05  6.5908e-04  3.2500e+02  0:00:45  114
   237  7.8277e-04  8.7967e-06  9.6304e-06  3.0121e-06  9.9732e-07  4.3535e-05  6.4974e-04  3.2500e+02  0:00:35  113
!  237 solution is converged
Performance profile written to C:/Users/Dell/AppData/Local/Temp/_ALI-DESKTOP_2568/run-information.txt
Performance profile written to C:/Users/Dell/AppData/Local/Temp/_ALI-DESKTOP_2568/run-information.txt

number tracked = 204, escaped = 204

Writing "C:/Users/Dell/AppData/Local/Temp/_ALI-DESKTOP_2568/scene-lic-temp_scene.avz" ...
Done.

Writing "C:/Users/Dell/AppData/Local/Temp/_ALI-DESKTOP_2568/scene-lic-vel_scene.avz" ...
Done.

Writing "C:/Users/Dell/AppData/Local/Temp/_ALI-DESKTOP_2568/scene-vectors_scene.avz" ...
Done.

number tracked = 204, escaped = 204

number tracked = 204, escaped = 204

Writing "C:/Users/Dell/AppData/Local/Temp/_ALI-DESKTOP_2568/scene-pathlines-temp_scene.avz" ...
Done.

Writing "C:/Users/Dell/AppData/Local/Temp/_ALI-DESKTOP_2568/scene-vel-inlet-plane_scene.avz" ...
Done.

Writing "C:/Users/Dell/AppData/Local/Temp/_ALI-DESKTOP_2568/scene-temp-walls_scene.avz" ...
Done.

Writing "C:/Users/Dell/AppData/Local/Temp/_ALI-DESKTOP_2568/scene-temp-inlet-plane_scene.avz" ...
Done.

Writing to ALI-DESKTOP:"D:/HPC Workshop/Ansys Cases/parametric_mixer/parametric_ansys_project/Static_Mixer.cffdb\Static_Mixer-Solve\DP5\Static_Mixer.cas.h5" in NODE0 mode and compression level 1 ...
Grouping cells for Laplace smoothing ...
       22771 cells,     1 zone  ...
      119140 faces,     5 zones ...
       82247 nodes,     1 zone  ...
  Done.
Done.

Writing to ALI-DESKTOP:"D:/HPC Workshop/Ansys Cases/parametric_mixer/parametric_ansys_project/Static_Mixer.cffdb\Static_Mixer-Solve\DP5\Static_Mixer.dat.h5" in NODE0 mode and compression level 1 ...
  Writing results.
Done.

Transcript closed.

Preparing mesh for display...
Done.
(cx-gui-do cx-activate-tab-index "Parametric Study*Table1*Frame1*Table2*Frame1" 0)
(cx-gui-do cx-activate-tab-index "Parametric Study*Table1*Frame1*Table2*Frame1" 1)
(cx-gui-do cx-activate-tab-index "Parametric Study*Table1*Frame1*Table2*Frame1" 2)
(cx-gui-do cx-set-list-tree-selections "NavigationPane*Frame2*Table2*List_Tree2" (list "Parametric Studies|Static_Mixer-Solve (Current)|Parametric Reports|Design Point Report Settings"))
(cx-gui-do cx-set-list-tree-selections "NavigationPane*Frame2*Table2*List_Tree2" (list "Parametric Studies|Static_Mixer-Solve (Current)|Parametric Reports|Parametric Report"))
(cx-gui-do cx-set-list-tree-selections "NavigationPane*Frame2*Table2*List_Tree2" (list "Parametric Studies|Static_Mixer-Solve (Current)|Parametric Reports|Parametric Report"))
(cx-gui-do cx-set-list-tree-selections "NavigationPane*Frame2*Table2*List_Tree2" (list "Parametric Studies|Static_Mixer-Solve (Current)|Parametric Reports|Parametric Report"))
(cx-gui-do cx-set-list-tree-selections "NavigationPane*Frame2*Table2*List_Tree2" (list "Parametric Studies|Static_Mixer-Solve (Current)|Parametric Reports|Parametric Report"))
(cx-gui-do cx-activate-item "NavigationPane*Frame2*Table2*List_Tree2")
(cx-gui-do cx-set-list-tree-selections "NavigationPane*Frame2*Table2*List_Tree2" (list "Parametric Studies|Static_Mixer-Solve (Current)|Parametric Reports|Parametric Report"))
(cx-gui-do cx-activate-item "MenuBar*WriteSubMenu*Case & Data...")
(cx-gui-do cx-set-file-dialog-entries "Select File" '( "D:/HPC Workshop/Ansys Cases/parametric_mixer/parametric_ansys_project/Static_Mixer.cas.h5") "CFF Case/Data Files (*.cas.h5 *.dat.h5 )")

Writing to ALI-DESKTOP:"D:/HPC Workshop/Ansys Cases/parametric_mixer/parametric_ansys_project/Static_Mixer.cas.h5" in NODE0 mode and compression level 1 ...
Grouping cells for Laplace smoothing ...
       22771 cells,     1 zone  ...
      119140 faces,     5 zones ...
       82247 nodes,     1 zone  ...
  Done.
Done.

Writing to ALI-DESKTOP:"D:/HPC Workshop/Ansys Cases/parametric_mixer/parametric_ansys_project/Static_Mixer.dat.h5" in NODE0 mode and compression level 1 ...
  Writing results.
Done.
 Error in the fluent (fl) process : ended abnormally

===================================================================================
=   BAD TERMINATION OF ONE OF YOUR APPLICATION PROCESSES
=   RANK 0 PID 8848 RUNNING AT ALI-DESKTOP
=   EXIT STATUS: 1073807364 (40010004)
===================================================================================

===================================================================================
=   BAD TERMINATION OF ONE OF YOUR APPLICATION PROCESSES
=   RANK 1 PID 1988 RUNNING AT ALI-DESKTOP
=   EXIT STATUS: 1073807364 (40010004)
===================================================================================

===================================================================================
=   BAD TERMINATION OF ONE OF YOUR APPLICATION PROCESSES
=   RANK 2 PID 24444 RUNNING AT ALI-DESKTOP
=   EXIT STATUS: 1073807364 (40010004)
===================================================================================

===================================================================================
=   BAD TERMINATION OF ONE OF YOUR APPLICATION PROCESSES
=   RANK 3 PID 23304 RUNNING AT ALI-DESKTOP
=   EXIT STATUS: 1073807364 (40010004)
===================================================================================
(cx-gui-do cx-activate-item "Question*Cancel")
