Multicore SMT processors detected. Processor affinity set!

       Clearing partially read grid.

Reading from ALI-DESKTOP:"D:/HPC Workshop/Ansys Cases/parametric_mixer/parametric_ansys_project/Static_Mixer.cffdb\Static_Mixer-Solve\BaseCases\Static_Mixer.cas.h5" in NODE0 mode ...
  Reading mesh ...
       22771 cells,     1 cell zone  ...
          22771 polyhedra cells,  zone id: 97
      119140 faces,     5 face zones ...
         114959 polygonal interior faces,  zone id: 96
           3873 polygonal wall faces,  zone id: 20
            104 polygonal pressure-outlet faces,  zone id: 19
            103 polygonal velocity-inlet faces,  zone id: 18
            101 polygonal velocity-inlet faces,  zone id: 17
       82247 nodes,     1 node zone  ...
  Done.


Building...
     mesh
	distributing mesh
		parts....,
		faces....,
		nodes....,
		cells....,
        bandwidth reduction using Reverse Cuthill-McKee: 5673/485 = 11.6969
     materials,
     interface,
     domains,
	mixture
     zones,
	interior--fluid
	wall
	outlet
	inlet2
	inlet1
	fluid
     parallel,
Done.

Applying input parameter values ...


  iter  continuity  x-velocity  y-velocity  z-velocity      energy           k     epsilon  outlet-tem     time/iter

 Reversed flow on 11 faces (20.3% area) of pressure-outlet 19.
     1  1.0000e+00  1.8302e-03  8.0105e-03  6.9512e-04  9.6745e-04  1.7545e-01  6.6671e+01  3.0000e+02  0:00:00  349

 Reversed flow on 5 faces (2.6% area) of pressure-outlet 19.
     2  8.8091e-01  9.5907e-03  6.2235e-02  1.1998e-02  1.0760e-03  1.3007e-01  3.7080e-01  3.0007e+02  0:11:36  348

 Reversed flow on 5 faces (2.6% area) of pressure-outlet 19.
     3  6.3558e-01  7.0153e-03  4.0312e-02  8.1707e-03  1.1663e-03  9.0480e-02  3.8854e-01  3.0054e+02  0:10:25  347
     4  5.4530e-01  3.9919e-03  1.9778e-02  4.7714e-03  1.1517e-03  8.5089e-02  6.6774e-01  3.0245e+02  0:08:18  346
     5  4.8046e-01  2.9394e-03  1.0979e-02  2.6406e-03  9.4764e-04  6.7765e-02  1.1661e+00  3.0455e+02  0:07:46  345
     6  3.7862e-01  2.3560e-03  6.1423e-03  2.0507e-03  7.7360e-04  5.1853e-02  1.3314e+00  3.0652e+02  0:06:12  344
     7  2.8401e-01  1.9642e-03  3.9254e-03  1.4571e-03  6.3809e-04  3.7779e-02  1.1338e+00  3.0840e+02  0:04:57  343
     8  2.0350e-01  1.6891e-03  2.7857e-03  1.2700e-03  5.4755e-04  2.6621e-02  8.3265e-01  3.1020e+02  0:05:05  342
     9  1.4418e-01  1.4680e-03  2.1731e-03  1.0115e-03  4.7558e-04  1.8421e-02  5.7046e-01  3.1189e+02  0:04:03  341
    10  1.0359e-01  1.2984e-03  1.8097e-03  8.4153e-04  4.2216e-04  1.2655e-02  3.7636e-01  3.1339e+02  0:04:22  340
    11  8.1242e-02  1.1726e-03  1.5808e-03  7.2389e-04  3.7051e-04  8.5442e-03  2.3753e-01  3.1475e+02  0:03:29  339

  iter  continuity  x-velocity  y-velocity  z-velocity      energy           k     epsilon  outlet-tem     time/iter
    12  7.0140e-02  1.0777e-03  1.4323e-03  6.2593e-04  3.2436e-04  5.8345e-03  1.4127e-01  3.1597e+02  0:02:47  338
    13  6.3163e-02  1.0117e-03  1.3259e-03  5.6421e-04  2.8604e-04  4.3556e-03  7.8435e-02  3.1699e+02  0:03:20  337
    14  5.7295e-02  9.7015e-04  1.2437e-03  5.2039e-04  2.5547e-04  3.7270e-03  4.7120e-02  3.1787e+02  0:02:40  336
    15  5.2197e-02  9.3916e-04  1.1782e-03  4.8209e-04  2.3157e-04  3.4990e-03  3.8356e-02  3.1862e+02  0:03:15  335
    16  4.8447e-02  9.1123e-04  1.1209e-03  4.5767e-04  2.1198e-04  3.3913e-03  3.8686e-02  3.1929e+02  0:02:35  334
    17  4.5677e-02  8.8331e-04  1.0687e-03  4.3923e-04  1.9500e-04  3.3155e-03  4.0790e-02  3.1987e+02  0:03:10  333
    18  4.3976e-02  8.5430e-04  1.0201e-03  4.2322e-04  1.8000e-04  3.2282e-03  4.1700e-02  3.2041e+02  0:02:32  332
    19  4.2862e-02  8.2517e-04  9.7322e-04  4.0772e-04  1.6676e-04  3.1231e-03  4.1191e-02  3.2088e+02  0:05:20  331
    20  4.2064e-02  7.9590e-04  9.2756e-04  3.9076e-04  1.5530e-04  2.9975e-03  3.9406e-02  3.2132e+02  0:05:21  330
    21  4.1206e-02  7.6581e-04  8.8372e-04  3.7353e-04  1.4445e-04  2.8493e-03  3.6868e-02  3.2173e+02  0:05:22  329
    22  4.0303e-02  7.3466e-04  8.4018e-04  3.5719e-04  1.3475e-04  2.6814e-03  3.3949e-02  3.2212e+02  0:04:17  328

  iter  continuity  x-velocity  y-velocity  z-velocity      energy           k     epsilon  outlet-tem     time/iter
    23  3.9273e-02  7.0313e-04  7.9757e-04  3.3927e-04  1.2584e-04  2.5303e-03  3.1172e-02  3.2249e+02  0:04:30  327
    24  3.7972e-02  6.7058e-04  7.5645e-04  3.2264e-04  1.1758e-04  2.3905e-03  2.8790e-02  3.2283e+02  0:03:35  326
    25  3.6621e-02  6.3808e-04  7.1636e-04  3.0588e-04  1.1016e-04  2.2590e-03  2.6727e-02  3.2316e+02  0:02:52  325
    26  3.5250e-02  6.0600e-04  6.7786e-04  2.8960e-04  1.0301e-04  2.1270e-03  2.4829e-02  3.2347e+02  0:03:22  324
    27  3.3871e-02  5.7498e-04  6.4121e-04  2.7358e-04  9.5724e-05  1.9974e-03  2.2922e-02  3.2377e+02  0:02:41  323
    28  3.2507e-02  5.4510e-04  6.0606e-04  2.5728e-04  8.8987e-05  1.8898e-03  2.1264e-02  3.2406e+02  0:02:08  322
    29  3.1099e-02  5.1611e-04  5.7251e-04  2.4423e-04  8.2475e-05  1.7782e-03  1.9603e-02  3.2433e+02  0:02:47  321
    30  2.9795e-02  4.8972e-04  5.4113e-04  2.2979e-04  7.6352e-05  1.6833e-03  1.8190e-02  3.2458e+02  0:02:13  320
    31  2.8491e-02  4.6238e-04  5.1040e-04  2.1852e-04  7.0619e-05  1.5905e-03  1.6856e-02  3.2482e+02  0:02:50  319
    32  2.7234e-02  4.3811e-04  4.8269e-04  2.0672e-04  6.5362e-05  1.4994e-03  1.5622e-02  3.2505e+02  0:02:15  318
    33  2.6052e-02  4.1503e-04  4.5624e-04  1.9596e-04  6.0494e-05  1.4215e-03  1.4570e-02  3.2527e+02  0:01:48  317

  iter  continuity  x-velocity  y-velocity  z-velocity      energy           k     epsilon  outlet-tem     time/iter
    34  2.4939e-02  3.9287e-04  4.3143e-04  1.8660e-04  5.5963e-05  1.3534e-03  1.3643e-02  3.2548e+02  0:02:29  316
    35  2.3839e-02  3.7215e-04  4.0823e-04  1.7668e-04  5.1994e-05  1.2916e-03  1.2854e-02  3.2567e+02  0:01:59  315
    36  2.2833e-02  3.5244e-04  3.8669e-04  1.6810e-04  4.8418e-05  1.2396e-03  1.2204e-02  3.2585e+02  0:01:35  314
    37  2.1866e-02  3.3413e-04  3.6668e-04  1.5913e-04  4.5250e-05  1.1921e-03  1.1690e-02  3.2601e+02  0:02:18  313
    38  2.0941e-02  3.1680e-04  3.4765e-04  1.5052e-04  4.2402e-05  1.1520e-03  1.1285e-02  3.2617e+02  0:02:53  312
    39  2.0041e-02  3.0081e-04  3.2993e-04  1.4226e-04  3.9779e-05  1.1163e-03  1.0979e-02  3.2632e+02  0:02:18  311
    40  1.9216e-02  2.8542e-04  3.1305e-04  1.3462e-04  3.7522e-05  1.0837e-03  1.0805e-02  3.2645e+02  0:01:50  310
    41  1.8446e-02  2.7134e-04  2.9765e-04  1.2699e-04  3.5529e-05  1.0574e-03  1.0687e-02  3.2658e+02  0:02:29  309
    42  1.7695e-02  2.5767e-04  2.8297e-04  1.2036e-04  3.3730e-05  1.0362e-03  1.0640e-02  3.2670e+02  0:01:59  308
    43  1.6963e-02  2.4526e-04  2.6943e-04  1.1376e-04  3.2152e-05  1.0197e-03  1.0623e-02  3.2680e+02  0:02:36  307
    44  1.6279e-02  2.3294e-04  2.5644e-04  1.0835e-04  3.0726e-05  1.0042e-03  1.0648e-02  3.2690e+02  0:02:05  306

  iter  continuity  x-velocity  y-velocity  z-velocity      energy           k     epsilon  outlet-tem     time/iter
    45  1.5662e-02  2.2200e-04  2.4484e-04  1.0294e-04  2.9496e-05  9.8823e-04  1.0688e-02  3.2699e+02  0:01:39  305
    46  1.5081e-02  2.1171e-04  2.3404e-04  9.8125e-05  2.8448e-05  9.7091e-04  1.0699e-02  3.2706e+02  0:02:20  304
    47  1.4530e-02  2.0187e-04  2.2406e-04  9.4071e-05  2.7491e-05  9.5305e-04  1.0673e-02  3.2713e+02  0:01:52  303
    48  1.4014e-02  1.9285e-04  2.1475e-04  9.0378e-05  2.6550e-05  9.3198e-04  1.0623e-02  3.2719e+02  0:01:29  302
    49  1.3541e-02  1.8451e-04  2.0588e-04  8.6947e-05  2.5612e-05  9.1013e-04  1.0498e-02  3.2724e+02  0:02:11  301
    50  1.3075e-02  1.7644e-04  1.9725e-04  8.4042e-05  2.4631e-05  8.8409e-04  1.0331e-02  3.2729e+02  0:01:45  300
    51  1.2644e-02  1.6951e-04  1.8916e-04  8.0892e-05  2.3627e-05  8.5862e-04  1.0084e-02  3.2733e+02  0:02:23  299
    52  1.2233e-02  1.6230e-04  1.8092e-04  7.7965e-05  2.2562e-05  8.3004e-04  9.7651e-03  3.2736e+02  0:01:54  298
    53  1.1820e-02  1.5574e-04  1.7334e-04  7.5042e-05  2.1483e-05  7.9969e-04  9.3800e-03  3.2738e+02  0:01:31  297
    54  1.1453e-02  1.4955e-04  1.6602e-04  7.2233e-05  2.0399e-05  7.6711e-04  8.9454e-03  3.2740e+02  0:02:12  296
    55  1.1064e-02  1.4362e-04  1.5892e-04  6.9528e-05  1.9297e-05  7.3315e-04  8.4920e-03  3.2742e+02  0:01:45  295

  iter  continuity  x-velocity  y-velocity  z-velocity      energy           k     epsilon  outlet-tem     time/iter
    56  1.0702e-02  1.3820e-04  1.5229e-04  6.6752e-05  1.8259e-05  6.9965e-04  8.0290e-03  3.2743e+02  0:02:23  294
    57  1.0331e-02  1.3288e-04  1.4589e-04  6.4057e-05  1.7343e-05  6.6680e-04  7.5854e-03  3.2744e+02  0:01:54  293
    58  9.9685e-03  1.2806e-04  1.4010e-04  6.1394e-05  1.6553e-05  6.3560e-04  7.1738e-03  3.2744e+02  0:01:31  292
    59  9.6183e-03  1.2354e-04  1.3478e-04  5.8806e-05  1.5959e-05  6.0833e-04  6.8024e-03  3.2745e+02  0:02:10  291
    60  9.2934e-03  1.1921e-04  1.2993e-04  5.6419e-05  1.5486e-05  5.8270e-04  6.4651e-03  3.2745e+02  0:01:44  290
    61  9.0155e-03  1.1549e-04  1.2579e-04  5.3994e-05  1.5001e-05  5.6183e-04  6.1748e-03  3.2745e+02  0:01:23  289
    62  8.7342e-03  1.1156e-04  1.2189e-04  5.2103e-05  1.4660e-05  5.4338e-04  5.9242e-03  3.2745e+02  0:02:04  288
    63  8.4846e-03  1.0828e-04  1.1876e-04  5.0448e-05  1.4664e-05  5.2867e-04  5.7055e-03  3.2745e+02  0:01:39  287
    64  8.2561e-03  1.0517e-04  1.1587e-04  4.9182e-05  1.4530e-05  5.1554e-04  5.5155e-03  3.2745e+02  0:02:16  286
    65  8.0578e-03  1.0258e-04  1.1349e-04  4.7949e-05  1.4508e-05  5.0633e-04  5.3668e-03  3.2745e+02  0:01:48  285
    66  7.8754e-03  9.9970e-05  1.1125e-04  4.7302e-05  1.4499e-05  4.9778e-04  5.2286e-03  3.2745e+02  0:01:26  284

  iter  continuity  x-velocity  y-velocity  z-velocity      energy           k     epsilon  outlet-tem     time/iter
    67  7.7439e-03  9.7996e-05  1.0952e-04  4.6435e-05  1.4568e-05  4.9342e-04  5.1275e-03  3.2745e+02  0:02:05  283
    68  7.6294e-03  9.5756e-05  1.0762e-04  4.6198e-05  1.4608e-05  4.8957e-04  5.0441e-03  3.2745e+02  0:01:40  282
    69  7.5436e-03  9.4039e-05  1.0606e-04  4.5805e-05  1.4662e-05  4.8590e-04  4.9695e-03  3.2745e+02  0:01:20  281
    70  7.4636e-03  9.2367e-05  1.0443e-04  4.5684e-05  1.4717e-05  4.8325e-04  4.9148e-03  3.2745e+02  0:02:00  280
    71  7.3772e-03  9.0815e-05  1.0288e-04  4.5779e-05  1.4744e-05  4.8053e-04  4.8625e-03  3.2746e+02  0:01:35  279
    72  7.3028e-03  8.9494e-05  1.0144e-04  4.5778e-05  1.4719e-05  4.7810e-04  4.8126e-03  3.2746e+02  0:02:12  278
    73  7.2443e-03  8.8238e-05  9.9954e-05  4.5765e-05  1.4690e-05  4.7682e-04  4.7751e-03  3.2747e+02  0:01:45  277
    74  7.1800e-03  8.6978e-05  9.8453e-05  4.5813e-05  1.4604e-05  4.7397e-04  4.7378e-03  3.2747e+02  0:01:24  276
    75  7.1060e-03  8.5913e-05  9.7072e-05  4.5613e-05  1.4465e-05  4.7029e-04  4.7087e-03  3.2748e+02  0:02:02  275
    76  7.0308e-03  8.4744e-05  9.5585e-05  4.5389e-05  1.4292e-05  4.6763e-04  4.6878e-03  3.2749e+02  0:01:37  274
    77  6.9349e-03  8.3567e-05  9.4168e-05  4.5145e-05  1.4080e-05  4.6352e-04  4.6637e-03  3.2749e+02  0:01:17  273

  iter  continuity  x-velocity  y-velocity  z-velocity      energy           k     epsilon  outlet-tem     time/iter
    78  6.8478e-03  8.2492e-05  9.2817e-05  4.4698e-05  1.3877e-05  4.6023e-04  4.6477e-03  3.2750e+02  0:01:56  272
    79  6.7660e-03  8.1360e-05  9.1306e-05  4.4227e-05  1.3638e-05  4.5609e-04  4.6359e-03  3.2751e+02  0:01:32  271
    80  6.6795e-03  8.0294e-05  8.9874e-05  4.3697e-05  1.3380e-05  4.5183e-04  4.6218e-03  3.2751e+02  0:02:08  270
    81  6.5829e-03  7.9188e-05  8.8432e-05  4.3135e-05  1.3116e-05  4.4715e-04  4.5967e-03  3.2752e+02  0:01:42  269
    82  6.4750e-03  7.8127e-05  8.7079e-05  4.2459e-05  1.2819e-05  4.4037e-04  4.5550e-03  3.2753e+02  0:01:21  268
    83  6.3722e-03  7.7106e-05  8.5771e-05  4.1678e-05  1.2541e-05  4.3395e-04  4.5138e-03  3.2753e+02  0:01:58  267
    84  6.2673e-03  7.5941e-05  8.4362e-05  4.0933e-05  1.2262e-05  4.2723e-04  4.4648e-03  3.2754e+02  0:01:34  266
    85  6.1674e-03  7.4846e-05  8.3085e-05  4.0128e-05  1.1981e-05  4.2096e-04  4.4123e-03  3.2754e+02  0:02:08  265
    86  6.0660e-03  7.3702e-05  8.1774e-05  3.9311e-05  1.1696e-05  4.1452e-04  4.3590e-03  3.2755e+02  0:01:42  264
    87  5.9610e-03  7.2590e-05  8.0519e-05  3.8461e-05  1.1405e-05  4.0674e-04  4.2973e-03  3.2755e+02  0:01:21  263
    88  5.8596e-03  7.1521e-05  7.9301e-05  3.7588e-05  1.1114e-05  3.9883e-04  4.2325e-03  3.2756e+02  0:01:57  262

  iter  continuity  x-velocity  y-velocity  z-velocity      energy           k     epsilon  outlet-tem     time/iter
    89  5.7576e-03  7.0401e-05  7.8025e-05  3.6818e-05  1.0829e-05  3.8985e-04  4.1588e-03  3.2756e+02  0:01:33  261
    90  5.6623e-03  6.9389e-05  7.6865e-05  3.6020e-05  1.0569e-05  3.8162e-04  4.0857e-03  3.2756e+02  0:01:14  260
    91  5.5596e-03  6.8302e-05  7.5655e-05  3.5309e-05  1.0314e-05  3.7337e-04  4.0071e-03  3.2757e+02  0:01:51  259
    92  5.4692e-03  6.7326e-05  7.4593e-05  3.4609e-05  1.0066e-05  3.6488e-04  3.9265e-03  3.2757e+02  0:01:29  258
    93  5.3790e-03  6.6307e-05  7.3439e-05  3.3962e-05  9.8269e-06  3.5642e-04  3.8461e-03  3.2757e+02  0:02:02  257
    94  5.2943e-03  6.5363e-05  7.2356e-05  3.3303e-05  9.5953e-06  3.4870e-04  3.7695e-03  3.2758e+02  0:01:37  256
    95  5.2113e-03  6.4396e-05  7.1234e-05  3.2682e-05  9.3579e-06  3.4116e-04  3.6948e-03  3.2758e+02  0:01:17  255
    96  5.1307e-03  6.3480e-05  7.0169e-05  3.2071e-05  9.1377e-06  3.3380e-04  3.6263e-03  3.2758e+02  0:01:53  254
    97  5.0495e-03  6.2527e-05  6.9069e-05  3.1509e-05  8.9212e-06  3.2630e-04  3.5613e-03  3.2759e+02  0:01:30  253
    98  4.9707e-03  6.1649e-05  6.8035e-05  3.0942e-05  8.7036e-06  3.1870e-04  3.5012e-03  3.2759e+02  0:01:11  252
    99  4.8956e-03  6.0792e-05  6.6992e-05  3.0364e-05  8.5066e-06  3.1190e-04  3.4516e-03  3.2759e+02  0:01:47  251

  iter  continuity  x-velocity  y-velocity  z-velocity      energy           k     epsilon  outlet-tem     time/iter
   100  4.8242e-03  5.9849e-05  6.5844e-05  2.9870e-05  8.3030e-06  3.0550e-04  3.4105e-03  3.2759e+02  0:02:15  250
   101  4.7561e-03  5.9000e-05  6.4805e-05  2.9340e-05  8.1059e-06  2.9910e-04  3.3717e-03  3.2760e+02  0:01:48  249
   102  4.6881e-03  5.8113e-05  6.3693e-05  2.8785e-05  7.9239e-06  2.9293e-04  3.3351e-03  3.2760e+02  0:01:26  248
   103  4.6145e-03  5.7199e-05  6.2556e-05  2.8275e-05  7.7316e-06  2.8645e-04  3.2985e-03  3.2761e+02  0:01:58  247
   104  4.5485e-03  5.6370e-05  6.1521e-05  2.7690e-05  7.5606e-06  2.8078e-04  3.2654e-03  3.2761e+02  0:01:34  246
   105  4.4834e-03  5.5443e-05  6.0366e-05  2.7167e-05  7.3979e-06  2.7550e-04  3.2363e-03  3.2761e+02  0:01:15  245
   106  4.4130e-03  5.4564e-05  5.9302e-05  2.6646e-05  7.2422e-06  2.7046e-04  3.2061e-03  3.2762e+02  0:01:48  244
   107  4.3421e-03  5.3680e-05  5.8249e-05  2.6109e-05  7.0868e-06  2.6524e-04  3.1703e-03  3.2762e+02  0:01:26  243
   108  4.2768e-03  5.2810e-05  5.7225e-05  2.5536e-05  6.9361e-06  2.6039e-04  3.1305e-03  3.2763e+02  0:01:57  242
   109  4.2113e-03  5.1907e-05  5.6183e-05  2.4972e-05  6.7909e-06  2.5574e-04  3.0898e-03  3.2763e+02  0:01:33  241
   110  4.1429e-03  5.1019e-05  5.5194e-05  2.4403e-05  6.6529e-06  2.5134e-04  3.0510e-03  3.2764e+02  0:01:14  240

  iter  continuity  x-velocity  y-velocity  z-velocity      energy           k     epsilon  outlet-tem     time/iter
   111  4.0746e-03  5.0116e-05  5.4205e-05  2.3863e-05  6.5188e-06  2.4727e-04  3.0139e-03  3.2764e+02  0:01:47  239
   112  4.0080e-03  4.9238e-05  5.3261e-05  2.3335e-05  6.3835e-06  2.4332e-04  2.9809e-03  3.2765e+02  0:01:25  238
   113  3.9419e-03  4.8398e-05  5.2361e-05  2.2771e-05  6.2580e-06  2.4006e-04  2.9513e-03  3.2766e+02  0:01:08  237
   114  3.8760e-03  4.7513e-05  5.1424e-05  2.2248e-05  6.1330e-06  2.3665e-04  2.9232e-03  3.2766e+02  0:01:41  236
   115  3.8102e-03  4.6700e-05  5.0583e-05  2.1680e-05  6.0179e-06  2.3347e-04  2.8979e-03  3.2767e+02  0:01:21  235
   116  3.7443e-03  4.5864e-05  4.9718e-05  2.1144e-05  5.9112e-06  2.3046e-04  2.8756e-03  3.2767e+02  0:01:51  234
   117  3.6765e-03  4.5053e-05  4.8888e-05  2.0639e-05  5.8087e-06  2.2776e-04  2.8554e-03  3.2768e+02  0:01:29  233
   118  3.6104e-03  4.4239e-05  4.8073e-05  2.0167e-05  5.7116e-06  2.2515e-04  2.8343e-03  3.2768e+02  0:01:10  232
   119  3.5471e-03  4.3458e-05  4.7294e-05  1.9695e-05  5.6180e-06  2.2264e-04  2.8105e-03  3.2769e+02  0:01:42  231
   120  3.4880e-03  4.2696e-05  4.6536e-05  1.9247e-05  5.5266e-06  2.1984e-04  2.7859e-03  3.2769e+02  0:01:22  230
   121  3.4321e-03  4.1979e-05  4.5819e-05  1.8797e-05  5.4342e-06  2.1679e-04  2.7629e-03  3.2770e+02  0:01:05  229

  iter  continuity  x-velocity  y-velocity  z-velocity      energy           k     epsilon  outlet-tem     time/iter
   122  3.3780e-03  4.1274e-05  4.5110e-05  1.8365e-05  5.3555e-06  2.1433e-04  2.7395e-03  3.2770e+02  0:01:37  228
   123  3.3193e-03  4.0536e-05  4.4379e-05  1.8008e-05  5.2733e-06  2.1141e-04  2.7130e-03  3.2771e+02  0:01:18  227
   124  3.2639e-03  3.9911e-05  4.3763e-05  1.7600e-05  5.1973e-06  2.0871e-04  2.6812e-03  3.2771e+02  0:01:47  226
   125  3.2111e-03  3.9240e-05  4.3088e-05  1.7264e-05  5.1158e-06  2.0558e-04  2.6499e-03  3.2772e+02  0:01:25  225
   126  3.1630e-03  3.8671e-05  4.2508e-05  1.6882e-05  5.0511e-06  2.0317e-04  2.6208e-03  3.2772e+02  0:01:08  224
   127  3.1130e-03  3.8004e-05  4.1840e-05  1.6598e-05  4.9854e-06  2.0085e-04  2.5934e-03  3.2772e+02  0:01:39  223
   128  3.0660e-03  3.7446e-05  4.1284e-05  1.6274e-05  4.9260e-06  1.9865e-04  2.5627e-03  3.2773e+02  0:01:19  222
   129  3.0188e-03  3.6832e-05  4.0665e-05  1.6032e-05  4.8590e-06  1.9577e-04  2.5311e-03  3.2773e+02  0:01:47  221
   130  2.9757e-03  3.6312e-05  4.0138e-05  1.5691e-05  4.8007e-06  1.9338e-04  2.4989e-03  3.2773e+02  0:01:25  220
   131  2.9330e-03  3.5729e-05  3.9540e-05  1.5450e-05  4.7444e-06  1.9102e-04  2.4673e-03  3.2774e+02  0:01:52  219
   132  2.8896e-03  3.5206e-05  3.9005e-05  1.5213e-05  4.6866e-06  1.8843e-04  2.4357e-03  3.2774e+02  0:01:29  218

  iter  continuity  x-velocity  y-velocity  z-velocity      energy           k     epsilon  outlet-tem     time/iter
   133  2.8472e-03  3.4706e-05  3.8484e-05  1.4960e-05  4.6329e-06  1.8622e-04  2.4029e-03  3.2774e+02  0:01:54  217
   134  2.8062e-03  3.4196e-05  3.7947e-05  1.4749e-05  4.5743e-06  1.8358e-04  2.3730e-03  3.2775e+02  0:01:31  216
   135  2.7687e-03  3.3739e-05  3.7468e-05  1.4497e-05  4.5197e-06  1.8148e-04  2.3473e-03  3.2775e+02  0:01:55  215
   136  2.7329e-03  3.3269e-05  3.6964e-05  1.4283e-05  4.4695e-06  1.7975e-04  2.3230e-03  3.2775e+02  0:01:32  214
   137  2.6964e-03  3.2814e-05  3.6478e-05  1.4088e-05  4.4178e-06  1.7796e-04  2.2990e-03  3.2775e+02  0:01:56  213
   138  2.6605e-03  3.2393e-05  3.6024e-05  1.3880e-05  4.3669e-06  1.7614e-04  2.2726e-03  3.2776e+02  0:01:32  212
   139  2.6282e-03  3.1959e-05  3.5549e-05  1.3690e-05  4.3178e-06  1.7448e-04  2.2464e-03  3.2776e+02  0:01:13  211
   140  2.5948e-03  3.1542e-05  3.5092e-05  1.3514e-05  4.2692e-06  1.7274e-04  2.2188e-03  3.2776e+02  0:01:40  210
   141  2.5639e-03  3.1138e-05  3.4654e-05  1.3338e-05  4.2184e-06  1.7089e-04  2.1906e-03  3.2776e+02  0:01:20  209
   142  2.5342e-03  3.0752e-05  3.4227e-05  1.3149e-05  4.1740e-06  1.6920e-04  2.1618e-03  3.2777e+02  0:01:45  208
   143  2.5036e-03  3.0336e-05  3.3775e-05  1.3034e-05  4.1216e-06  1.6696e-04  2.1340e-03  3.2777e+02  0:01:24  207

  iter  continuity  x-velocity  y-velocity  z-velocity      energy           k     epsilon  outlet-tem     time/iter
   144  2.4768e-03  2.9998e-05  3.3398e-05  1.2807e-05  4.0720e-06  1.6496e-04  2.1084e-03  3.2777e+02  0:01:48  206
   145  2.4507e-03  2.9607e-05  3.2959e-05  1.2636e-05  4.0208e-06  1.6302e-04  2.0868e-03  3.2777e+02  0:01:26  205
   146  2.4227e-03  2.9255e-05  3.2567e-05  1.2465e-05  3.9781e-06  1.6152e-04  2.0659e-03  3.2777e+02  0:01:08  204
   147  2.3906e-03  2.8856e-05  3.2142e-05  1.2380e-05  3.9258e-06  1.5942e-04  2.0443e-03  3.2777e+02  0:01:35  203
   148  2.3638e-03  2.8556e-05  3.1806e-05  1.2153e-05  3.8792e-06  1.5773e-04  2.0217e-03  3.2778e+02  0:01:16  202
   149  2.3357e-03  2.8169e-05  3.1379e-05  1.2017e-05  3.8303e-06  1.5595e-04  1.9997e-03  3.2778e+02  0:01:40  201
   150  2.3059e-03  2.7840e-05  3.1017e-05  1.1863e-05  3.7776e-06  1.5422e-04  1.9788e-03  3.2778e+02  0:01:20  200
   151  2.2801e-03  2.7519e-05  3.0659e-05  1.1689e-05  3.7311e-06  1.5256e-04  1.9594e-03  3.2778e+02  0:01:04  199
   152  2.2516e-03  2.7161e-05  3.0268e-05  1.1574e-05  3.6826e-06  1.5085e-04  1.9415e-03  3.2778e+02  0:01:30  198
   153  2.2249e-03  2.6858e-05  2.9931e-05  1.1409e-05  3.6374e-06  1.4934e-04  1.9231e-03  3.2778e+02  0:01:12  197
   154  2.1981e-03  2.6513e-05  2.9553e-05  1.1285e-05  3.5957e-06  1.4784e-04  1.9023e-03  3.2778e+02  0:01:36  196

  iter  continuity  x-velocity  y-velocity  z-velocity      energy           k     epsilon  outlet-tem     time/iter
   155  2.1713e-03  2.6176e-05  2.9187e-05  1.1185e-05  3.5483e-06  1.4606e-04  1.8798e-03  3.2778e+02  0:01:17  195
   156  2.1459e-03  2.5875e-05  2.8853e-05  1.1008e-05  3.5047e-06  1.4447e-04  1.8574e-03  3.2778e+02  0:01:01  194
   157  2.1196e-03  2.5542e-05  2.8489e-05  1.0873e-05  3.4605e-06  1.4288e-04  1.8374e-03  3.2779e+02  0:01:27  193
   158  2.0939e-03  2.5233e-05  2.8153e-05  1.0732e-05  3.4170e-06  1.4135e-04  1.8181e-03  3.2779e+02  0:01:09  192
   159  2.0704e-03  2.4924e-05  2.7812e-05  1.0599e-05  3.3768e-06  1.3991e-04  1.7993e-03  3.2779e+02  0:00:55  191
   160  2.0461e-03  2.4606e-05  2.7467e-05  1.0492e-05  3.3358e-06  1.3839e-04  1.7801e-03  3.2779e+02  0:01:22  190
   161  2.0219e-03  2.4302e-05  2.7133e-05  1.0378e-05  3.2911e-06  1.3664e-04  1.7601e-03  3.2779e+02  0:01:05  189
   162  1.9998e-03  2.4028e-05  2.6822e-05  1.0207e-05  3.2493e-06  1.3504e-04  1.7407e-03  3.2779e+02  0:01:29  188
   163  1.9776e-03  2.3727e-05  2.6483e-05  1.0079e-05  3.2085e-06  1.3346e-04  1.7224e-03  3.2779e+02  0:01:11  187
   164  1.9541e-03  2.3441e-05  2.6165e-05  9.9570e-06  3.1675e-06  1.3192e-04  1.7047e-03  3.2779e+02  0:00:57  186
   165  1.9313e-03  2.3160e-05  2.5854e-05  9.8347e-06  3.1271e-06  1.3034e-04  1.6861e-03  3.2779e+02  0:01:22  185

  iter  continuity  x-velocity  y-velocity  z-velocity      energy           k     epsilon  outlet-tem     time/iter
   166  1.9088e-03  2.2882e-05  2.5547e-05  9.7158e-06  3.0889e-06  1.2881e-04  1.6664e-03  3.2779e+02  0:01:05  184
   167  1.8851e-03  2.2597e-05  2.5231e-05  9.6096e-06  3.0486e-06  1.2722e-04  1.6474e-03  3.2779e+02  0:00:52  183
   168  1.8621e-03  2.2334e-05  2.4940e-05  9.4737e-06  3.0103e-06  1.2572e-04  1.6282e-03  3.2779e+02  0:01:18  182
   169  1.8381e-03  2.2049e-05  2.4625e-05  9.3671e-06  2.9726e-06  1.2420e-04  1.6092e-03  3.2779e+02  0:01:02  181
   170  1.8163e-03  2.1783e-05  2.4331e-05  9.2523e-06  2.9360e-06  1.2264e-04  1.5893e-03  3.2779e+02  0:01:25  180
   171  1.7947e-03  2.1515e-05  2.4031e-05  9.1440e-06  2.9014e-06  1.2112e-04  1.5684e-03  3.2779e+02  0:01:08  179
   172  1.7729e-03  2.1243e-05  2.3732e-05  9.0527e-06  2.8643e-06  1.1947e-04  1.5467e-03  3.2779e+02  0:01:30  178
   173  1.7537e-03  2.0996e-05  2.3452e-05  8.9187e-06  2.8278e-06  1.1805e-04  1.5253e-03  3.2779e+02  0:01:11  177
   174  1.7334e-03  2.0729e-05  2.3153e-05  8.8079e-06  2.7906e-06  1.1649e-04  1.5048e-03  3.2779e+02  0:00:57  176
   175  1.7129e-03  2.0488e-05  2.2876e-05  8.6881e-06  2.7560e-06  1.1508e-04  1.4851e-03  3.2779e+02  0:01:20  175
   176  1.6916e-03  2.0235e-05  2.2589e-05  8.5825e-06  2.7224e-06  1.1380e-04  1.4649e-03  3.2779e+02  0:01:04  174

  iter  continuity  x-velocity  y-velocity  z-velocity      energy           k     epsilon  outlet-tem     time/iter
   177  1.6706e-03  1.9986e-05  2.2311e-05  8.4874e-06  2.6885e-06  1.1244e-04  1.4433e-03  3.2779e+02  0:01:25  173
   178  1.6499e-03  1.9747e-05  2.2041e-05  8.3834e-06  2.6562e-06  1.1100e-04  1.4206e-03  3.2779e+02  0:01:08  172
   179  1.6292e-03  1.9497e-05  2.1763e-05  8.3023e-06  2.6233e-06  1.0937e-04  1.3977e-03  3.2779e+02  0:01:28  171
   180  1.6092e-03  1.9262e-05  2.1498e-05  8.1975e-06  2.5900e-06  1.0774e-04  1.3757e-03  3.2779e+02  0:01:10  170
   181  1.5903e-03  1.9028e-05  2.1228e-05  8.0830e-06  2.5599e-06  1.0627e-04  1.3555e-03  3.2779e+02  0:00:56  169
   182  1.5700e-03  1.8780e-05  2.0948e-05  8.0009e-06  2.5283e-06  1.0479e-04  1.3366e-03  3.2779e+02  0:01:18  168
   183  1.5503e-03  1.8552e-05  2.0688e-05  7.8912e-06  2.4993e-06  1.0351e-04  1.3186e-03  3.2779e+02  0:01:02  167
   184  1.5313e-03  1.8310e-05  2.0416e-05  7.8106e-06  2.4674e-06  1.0214e-04  1.3017e-03  3.2779e+02  0:00:49  166
   185  1.5136e-03  1.8094e-05  2.0168e-05  7.6890e-06  2.4368e-06  1.0090e-04  1.2850e-03  3.2779e+02  0:01:12  165
   186  1.4942e-03  1.7853e-05  1.9894e-05  7.6047e-06  2.4036e-06  9.9542e-05  1.2687e-03  3.2779e+02  0:00:57  164
   187  1.4760e-03  1.7641e-05  1.9651e-05  7.4901e-06  2.3697e-06  9.8210e-05  1.2531e-03  3.2779e+02  0:01:18  163

  iter  continuity  x-velocity  y-velocity  z-velocity      energy           k     epsilon  outlet-tem     time/iter
   188  1.4591e-03  1.7429e-05  1.9407e-05  7.3760e-06  2.3411e-06  9.7014e-05  1.2387e-03  3.2779e+02  0:01:02  162
   189  1.4404e-03  1.7193e-05  1.9142e-05  7.2956e-06  2.3104e-06  9.5670e-05  1.2245e-03  3.2779e+02  0:00:49  161
   190  1.4222e-03  1.6987e-05  1.8912e-05  7.1967e-06  2.2782e-06  9.4239e-05  1.2090e-03  3.2779e+02  0:01:11  160
   191  1.4049e-03  1.6785e-05  1.8679e-05  7.0878e-06  2.2504e-06  9.2974e-05  1.1930e-03  3.2779e+02  0:00:57  159
   192  1.3858e-03  1.6552e-05  1.8421e-05  7.0237e-06  2.2211e-06  9.1567e-05  1.1759e-03  3.2779e+02  0:00:45  158
   193  1.3672e-03  1.6353e-05  1.8197e-05  6.9226e-06  2.1916e-06  9.0255e-05  1.1581e-03  3.2779e+02  0:01:07  157
   194  1.3496e-03  1.6137e-05  1.7955e-05  6.8331e-06  2.1618e-06  8.8901e-05  1.1408e-03  3.2779e+02  0:00:53  156
   195  1.3336e-03  1.5938e-05  1.7726e-05  6.7272e-06  2.1321e-06  8.7603e-05  1.1247e-03  3.2779e+02  0:01:13  155
   196  1.3178e-03  1.5736e-05  1.7496e-05  6.6302e-06  2.1045e-06  8.6388e-05  1.1097e-03  3.2779e+02  0:00:58  154
   197  1.3004e-03  1.5524e-05  1.7261e-05  6.5547e-06  2.0750e-06  8.5066e-05  1.0949e-03  3.2779e+02  0:00:46  153
   198  1.2841e-03  1.5339e-05  1.7053e-05  6.4517e-06  2.0459e-06  8.3798e-05  1.0802e-03  3.2779e+02  0:01:07  152

  iter  continuity  x-velocity  y-velocity  z-velocity      energy           k     epsilon  outlet-tem     time/iter
   199  1.2675e-03  1.5144e-05  1.6832e-05  6.3589e-06  2.0197e-06  8.2676e-05  1.0656e-03  3.2779e+02  0:00:53  151
   200  1.2502e-03  1.4935e-05  1.6603e-05  6.3019e-06  1.9902e-06  8.1331e-05  1.0501e-03  3.2779e+02  0:01:13  150
   201  1.2341e-03  1.4763e-05  1.6406e-05  6.1885e-06  1.9637e-06  8.0184e-05  1.0339e-03  3.2779e+02  0:00:58  149
   202  1.2178e-03  1.4555e-05  1.6174e-05  6.1185e-06  1.9377e-06  7.8992e-05  1.0177e-03  3.2779e+02  0:00:46  148
   203  1.2019e-03  1.4369e-05  1.5965e-05  6.0430e-06  1.9087e-06  7.7699e-05  1.0014e-03  3.2779e+02  0:01:06  147
   204  1.1874e-03  1.4202e-05  1.5769e-05  5.9355e-06  1.8811e-06  7.6538e-05  9.8630e-04  3.2779e+02  0:00:52  146
   205  1.1724e-03  1.4011e-05  1.5551e-05  5.8527e-06  1.8549e-06  7.5438e-05  9.7255e-04  3.2779e+02  0:00:42  145
   206  1.1562e-03  1.3827e-05  1.5344e-05  5.7818e-06  1.8282e-06  7.4331e-05  9.5945e-04  3.2779e+02  0:01:02  144
   207  1.1407e-03  1.3652e-05  1.5145e-05  5.6992e-06  1.8021e-06  7.3248e-05  9.4608e-04  3.2779e+02  0:00:49  143
   208  1.1258e-03  1.3472e-05  1.4941e-05  5.6197e-06  1.7766e-06  7.2153e-05  9.3259e-04  3.2779e+02  0:01:07  142
   209  1.1108e-03  1.3295e-05  1.4741e-05  5.5399e-06  1.7520e-06  7.1096e-05  9.1914e-04  3.2779e+02  0:00:54  141

  iter  continuity  x-velocity  y-velocity  z-velocity      energy           k     epsilon  outlet-tem     time/iter
   210  1.0954e-03  1.3112e-05  1.4537e-05  5.4681e-06  1.7273e-06  6.9996e-05  9.0576e-04  3.2779e+02  0:00:43  140
   211  1.0805e-03  1.2942e-05  1.4344e-05  5.3833e-06  1.7028e-06  6.8887e-05  8.9261e-04  3.2779e+02  0:01:02  139
   212  1.0661e-03  1.2770e-05  1.4148e-05  5.3023e-06  1.6793e-06  6.7843e-05  8.8022e-04  3.2779e+02  0:00:49  138
   213  1.0519e-03  1.2600e-05  1.3955e-05  5.2255e-06  1.6538e-06  6.6784e-05  8.6910e-04  3.2779e+02  0:00:39  137
   214  1.0387e-03  1.2445e-05  1.3776e-05  5.1373e-06  1.6306e-06  6.5839e-05  8.5909e-04  3.2779e+02  0:00:58  136
   215  1.0247e-03  1.2268e-05  1.3579e-05  5.0668e-06  1.6084e-06  6.4908e-05  8.4893e-04  3.2779e+02  0:00:46  135
   216  1.0097e-03  1.2099e-05  1.3392e-05  5.0115e-06  1.5846e-06  6.3791e-05  8.3710e-04  3.2779e+02  0:01:03  134
   217  9.9617e-04  1.1947e-05  1.3219e-05  4.9188e-06  1.5615e-06  6.2785e-05  8.2466e-04  3.2779e+02  0:00:50  133
   218  9.8229e-04  1.1778e-05  1.3028e-05  4.8488e-06  1.5386e-06  6.1780e-05  8.1240e-04  3.2779e+02  0:00:40  132
   219  9.6841e-04  1.1622e-05  1.2851e-05  4.7757e-06  1.5166e-06  6.0826e-05  8.0014e-04  3.2779e+02  0:00:58  131
   220  9.5472e-04  1.1464e-05  1.2673e-05  4.7049e-06  1.4947e-06  5.9856e-05  7.8782e-04  3.2779e+02  0:01:12  130

  iter  continuity  x-velocity  y-velocity  z-velocity      energy           k     epsilon  outlet-tem     time/iter
   221  9.4127e-04  1.1309e-05  1.2497e-05  4.6345e-06  1.4726e-06  5.8912e-05  7.7568e-04  3.2779e+02  0:00:57  129
   222  9.2804e-04  1.1155e-05  1.2323e-05  4.5653e-06  1.4512e-06  5.8003e-05  7.6382e-04  3.2779e+02  0:00:45  128
   223  9.1487e-04  1.1001e-05  1.2150e-05  4.5013e-06  1.4302e-06  5.7106e-05  7.5153e-04  3.2779e+02  0:01:01  127
   224  9.0164e-04  1.0846e-05  1.1976e-05  4.4439e-06  1.4088e-06  5.6178e-05  7.3862e-04  3.2779e+02  0:00:49  126
   225  8.8864e-04  1.0697e-05  1.1809e-05  4.3743e-06  1.3870e-06  5.5218e-05  7.2565e-04  3.2779e+02  0:01:04  125
   226  8.7608e-04  1.0551e-05  1.1644e-05  4.2991e-06  1.3656e-06  5.4316e-05  7.1335e-04  3.2778e+02  0:00:51  124
   227  8.6329e-04  1.0402e-05  1.1477e-05  4.2320e-06  1.3450e-06  5.3435e-05  7.0180e-04  3.2778e+02  0:00:40  123
   228  8.5057e-04  1.0255e-05  1.1312e-05  4.1708e-06  1.3234e-06  5.2498e-05  6.9039e-04  3.2778e+02  0:00:56  122
   229  8.3863e-04  1.0115e-05  1.1155e-05  4.1002e-06  1.3025e-06  5.1560e-05  6.7908e-04  3.2778e+02  0:00:45  121
   230  8.2678e-04  9.9725e-06  1.0994e-05  4.0366e-06  1.2805e-06  5.0655e-05  6.6871e-04  3.2778e+02  0:00:35  120
   231  8.1555e-04  9.8407e-06  1.0844e-05  3.9649e-06  1.2594e-06  4.9847e-05  6.5984e-04  3.2778e+02  0:00:52  119

  iter  continuity  x-velocity  y-velocity  z-velocity      energy           k     epsilon  outlet-tem     time/iter
   232  8.0411e-04  9.7021e-06  1.0688e-05  3.9022e-06  1.2387e-06  4.9094e-05  6.5235e-04  3.2778e+02  0:00:41  118
   233  7.9280e-04  9.5704e-06  1.0539e-05  3.8377e-06  1.2185e-06  4.8376e-05  6.4518e-04  3.2778e+02  0:00:56  117
   234  7.8129e-04  9.4353e-06  1.0388e-05  3.7786e-06  1.1988e-06  4.7650e-05  6.3762e-04  3.2778e+02  0:00:44  116
   235  7.6964e-04  9.3006e-06  1.0238e-05  3.7225e-06  1.1806e-06  4.6952e-05  6.2919e-04  3.2778e+02  0:00:35  115
   236  7.5781e-04  9.1619e-06  1.0085e-05  3.6784e-06  1.1619e-06  4.6184e-05  6.1959e-04  3.2778e+02  0:00:51  114
   237  7.4641e-04  9.0314e-06  9.9394e-06  3.6150e-06  1.1416e-06  4.5349e-05  6.0943e-04  3.2778e+02  0:00:40  113
   238  7.3620e-04  8.9105e-06  9.8028e-06  3.5383e-06  1.1226e-06  4.4626e-05  6.0036e-04  3.2778e+02  0:00:32  112
   239  7.2545e-04  8.7757e-06  9.6518e-06  3.4800e-06  1.1041e-06  4.3927e-05  5.9233e-04  3.2778e+02  0:00:48  111
   240  7.1436e-04  8.6507e-06  9.5121e-06  3.4272e-06  1.0859e-06  4.3199e-05  5.8442e-04  3.2778e+02  0:00:38  110
   241  7.0329e-04  8.5288e-06  9.3755e-06  3.3708e-06  1.0681e-06  4.2502e-05  5.7646e-04  3.2778e+02  0:00:52  109
   242  6.9268e-04  8.4060e-06  9.2383e-06  3.3167e-06  1.0504e-06  4.1796e-05  5.6807e-04  3.2778e+02  0:00:41  108

  iter  continuity  x-velocity  y-velocity  z-velocity      energy           k     epsilon  outlet-tem     time/iter
   243  6.8212e-04  8.2863e-06  9.1042e-06  3.2619e-06  1.0338e-06  4.1142e-05  5.5931e-04  3.2778e+02  0:00:32  107
   244  6.7123e-04  8.1604e-06  8.9653e-06  3.2241e-06  1.0156e-06  4.0380e-05  5.5029e-04  3.2778e+02  0:00:47  106
   245  6.6159e-04  8.0551e-06  8.8445e-06  3.1542e-06  9.9900e-07  3.9712e-05  5.4185e-04  3.2778e+02  0:00:37  105
!  245 solution is converged
Performance profile written to C:/Users/Dell/AppData/Local/Temp/_ALI-DESKTOP_2568/run-information.txt
Performance profile written to C:/Users/Dell/AppData/Local/Temp/_ALI-DESKTOP_2568/run-information.txt

number tracked = 204, escaped = 204

Writing "C:/Users/Dell/AppData/Local/Temp/_ALI-DESKTOP_2568/scene-lic-temp_scene.avz" ...
Done.

Writing "C:/Users/Dell/AppData/Local/Temp/_ALI-DESKTOP_2568/scene-lic-vel_scene.avz" ...
Done.

Writing "C:/Users/Dell/AppData/Local/Temp/_ALI-DESKTOP_2568/scene-vectors_scene.avz" ...
Done.

number tracked = 204, escaped = 204

number tracked = 204, escaped = 204

Writing "C:/Users/Dell/AppData/Local/Temp/_ALI-DESKTOP_2568/scene-pathlines-temp_scene.avz" ...
Done.

Writing "C:/Users/Dell/AppData/Local/Temp/_ALI-DESKTOP_2568/scene-vel-inlet-plane_scene.avz" ...
Done.

Writing "C:/Users/Dell/AppData/Local/Temp/_ALI-DESKTOP_2568/scene-temp-walls_scene.avz" ...
Done.

Writing "C:/Users/Dell/AppData/Local/Temp/_ALI-DESKTOP_2568/scene-temp-inlet-plane_scene.avz" ...
Done.

Writing to ALI-DESKTOP:"D:/HPC Workshop/Ansys Cases/parametric_mixer/parametric_ansys_project/Static_Mixer.cffdb\Static_Mixer-Solve\DP3\Static_Mixer.cas.h5" in NODE0 mode and compression level 1 ...
Grouping cells for Laplace smoothing ...
       22771 cells,     1 zone  ...
      119140 faces,     5 zones ...
       82247 nodes,     1 zone  ...
  Done.
Done.

Writing to ALI-DESKTOP:"D:/HPC Workshop/Ansys Cases/parametric_mixer/parametric_ansys_project/Static_Mixer.cffdb\Static_Mixer-Solve\DP3\Static_Mixer.dat.h5" in NODE0 mode and compression level 1 ...
  Writing results.
Done.
