Multicore SMT processors detected. Processor affinity set!

       Clearing partially read grid.

Reading from ALI-DESKTOP:"D:/HPC Workshop/Ansys Cases/parametric_mixer/parametric_ansys_project/Static_Mixer.cffdb\Static_Mixer-Solve\BaseCases\Static_Mixer.cas.h5" in NODE0 mode ...
  Reading mesh ...
       22771 cells,     1 cell zone  ...
          22771 polyhedra cells,  zone id: 97
      119140 faces,     5 face zones ...
         114959 polygonal interior faces,  zone id: 96
           3873 polygonal wall faces,  zone id: 20
            104 polygonal pressure-outlet faces,  zone id: 19
            103 polygonal velocity-inlet faces,  zone id: 18
            101 polygonal velocity-inlet faces,  zone id: 17
       82247 nodes,     1 node zone  ...
  Done.


Building...
     mesh
	distributing mesh
		parts....,
		faces....,
		nodes....,
		cells....,
        bandwidth reduction using Reverse Cuthill-McKee: 5673/485 = 11.6969
     materials,
     interface,
     domains,
	mixture
     zones,
	interior--fluid
	wall
	outlet
	inlet2
	inlet1
	fluid
     parallel,
Done.

Applying input parameter values ...


  iter  continuity  x-velocity  y-velocity  z-velocity      energy           k     epsilon  outlet-tem     time/iter

 Reversed flow on 11 faces (20.3% area) of pressure-outlet 19.
     1  1.0000e+00  1.8310e-03  7.8681e-03  6.9536e-04  1.0093e-03  1.7377e-01  6.5037e+01  3.0000e+02  0:05:49  349

 Reversed flow on 7 faces (3.7% area) of pressure-outlet 19.
     2  8.8245e-01  1.0263e-02  6.8469e-02  1.1843e-02  1.1149e-03  1.3220e-01  3.5890e-01  3.0006e+02  0:05:48  348

 Reversed flow on 3 faces (1.6% area) of pressure-outlet 19.
     3  6.3555e-01  7.5502e-03  4.3883e-02  8.2424e-03  1.2178e-03  8.9509e-02  3.8341e-01  3.0054e+02  0:05:47  347
     4  5.4840e-01  4.2557e-03  2.1485e-02  4.8441e-03  1.1816e-03  8.2197e-02  6.2033e-01  3.0256e+02  0:04:37  346
     5  4.8257e-01  3.0376e-03  1.1564e-02  2.7122e-03  9.7621e-04  6.7198e-02  1.0902e+00  3.0483e+02  0:04:50  345
     6  3.7878e-01  2.3927e-03  6.4480e-03  1.9884e-03  7.9388e-04  5.2493e-02  1.3291e+00  3.0695e+02  0:03:51  344
     7  2.8278e-01  2.0118e-03  4.0427e-03  1.5227e-03  6.5699e-04  3.8638e-02  1.1599e+00  3.0905e+02  0:03:04  343
     8  2.0205e-01  1.7261e-03  2.8595e-03  1.2626e-03  5.6416e-04  2.7272e-02  8.5888e-01  3.1102e+02  0:03:35  342
     9  1.4256e-01  1.4998e-03  2.2149e-03  1.0397e-03  4.8820e-04  1.8793e-02  5.8867e-01  3.1284e+02  0:02:52  341
    10  1.0162e-01  1.3207e-03  1.8323e-03  8.6973e-04  4.3232e-04  1.2784e-02  3.8459e-01  3.1443e+02  0:03:25  340
    11  7.8870e-02  1.1828e-03  1.5908e-03  7.1794e-04  3.7758e-04  8.5625e-03  2.4011e-01  3.1586e+02  0:02:44  339

  iter  continuity  x-velocity  y-velocity  z-velocity      energy           k     epsilon  outlet-tem     time/iter
    12  6.7409e-02  1.0822e-03  1.4294e-03  6.2079e-04  3.2841e-04  5.7707e-03  1.4067e-01  3.1706e+02  0:03:18  338
    13  6.0641e-02  1.0112e-03  1.3150e-03  5.5826e-04  2.8820e-04  4.2750e-03  7.5875e-02  3.1810e+02  0:02:38  337
    14  5.4874e-02  9.6597e-04  1.2278e-03  5.1070e-04  2.5627e-04  3.6362e-03  4.7633e-02  3.1898e+02  0:03:13  336
    15  4.9909e-02  9.3254e-04  1.1575e-03  4.7937e-04  2.3159e-04  3.3535e-03  3.9746e-02  3.1974e+02  0:02:34  335
    16  4.5946e-02  9.0323e-04  1.0970e-03  4.5180e-04  2.1104e-04  3.2205e-03  3.9464e-02  3.2040e+02  0:03:10  334
    17  4.3197e-02  8.7426e-04  1.0453e-03  4.3280e-04  1.9394e-04  3.1155e-03  4.0569e-02  3.2098e+02  0:02:31  333
    18  4.1424e-02  8.4339e-04  9.9631e-04  4.1484e-04  1.7885e-04  3.0114e-03  4.1052e-02  3.2149e+02  0:02:01  332
    19  4.0186e-02  8.1169e-04  9.4970e-04  3.9956e-04  1.6547e-04  2.9199e-03  4.0423e-02  3.2197e+02  0:02:42  331
    20  3.9253e-02  7.8174e-04  9.0526e-04  3.8245e-04  1.5366e-04  2.8240e-03  3.8911e-02  3.2241e+02  0:02:10  330
    21  3.8484e-02  7.5156e-04  8.6333e-04  3.6380e-04  1.4314e-04  2.7178e-03  3.6764e-02  3.2282e+02  0:02:49  329
    22  3.7546e-02  7.2019e-04  8.2233e-04  3.4923e-04  1.3345e-04  2.5922e-03  3.3971e-02  3.2322e+02  0:02:15  328

  iter  continuity  x-velocity  y-velocity  z-velocity      energy           k     epsilon  outlet-tem     time/iter
    23  3.6513e-02  6.8883e-04  7.8261e-04  3.3180e-04  1.2447e-04  2.4512e-03  3.1041e-02  3.2360e+02  0:02:53  327
    24  3.5389e-02  6.5691e-04  7.4384e-04  3.1653e-04  1.1619e-04  2.3127e-03  2.8285e-02  3.2397e+02  0:03:23  326
    25  3.4129e-02  6.2609e-04  7.0783e-04  3.0016e-04  1.0867e-04  2.2031e-03  2.6153e-02  3.2432e+02  0:02:42  325
    26  3.2778e-02  5.9537e-04  6.7330e-04  2.8583e-04  1.0168e-04  2.1005e-03  2.4444e-02  3.2466e+02  0:03:14  324
    27  3.1554e-02  5.6590e-04  6.4020e-04  2.7242e-04  9.5341e-05  2.0055e-03  2.2950e-02  3.2499e+02  0:02:35  323
    28  3.0446e-02  5.3806e-04  6.0848e-04  2.5926e-04  8.9003e-05  1.9160e-03  2.1522e-02  3.2530e+02  0:03:08  322
    29  2.9370e-02  5.1188e-04  5.7826e-04  2.4682e-04  8.3137e-05  1.8373e-03  2.0236e-02  3.2560e+02  0:03:34  321
    30  2.8325e-02  4.8674e-04  5.4960e-04  2.3609e-04  7.7809e-05  1.7644e-03  1.9058e-02  3.2588e+02  0:02:51  320
    31  2.7347e-02  4.6308e-04  5.2317e-04  2.2600e-04  7.2738e-05  1.6911e-03  1.7924e-02  3.2616e+02  0:03:20  319
    32  2.6372e-02  4.4062e-04  4.9823e-04  2.1565e-04  6.7835e-05  1.6235e-03  1.6916e-02  3.2642e+02  0:02:39  318
    33  2.5378e-02  4.1825e-04  4.7372e-04  2.0635e-04  6.3271e-05  1.5538e-03  1.5974e-02  3.2666e+02  0:03:11  317

  iter  continuity  x-velocity  y-velocity  z-velocity      energy           k     epsilon  outlet-tem     time/iter
    34  2.4423e-02  3.9766e-04  4.5075e-04  1.9619e-04  5.9047e-05  1.4911e-03  1.5174e-02  3.2690e+02  0:02:32  316
    35  2.3505e-02  3.7716e-04  4.2831e-04  1.8706e-04  5.5007e-05  1.4351e-03  1.4483e-02  3.2712e+02  0:03:04  315
    36  2.2591e-02  3.5790e-04  4.0672e-04  1.7766e-04  5.1247e-05  1.3868e-03  1.3902e-02  3.2733e+02  0:03:30  314
    37  2.1673e-02  3.3952e-04  3.8574e-04  1.6804e-04  4.7709e-05  1.3452e-03  1.3442e-02  3.2752e+02  0:02:47  313
    38  2.0768e-02  3.2128e-04  3.6503e-04  1.5944e-04  4.4510e-05  1.3010e-03  1.3041e-02  3.2770e+02  0:03:16  312
    39  1.9933e-02  3.0561e-04  3.4614e-04  1.4967e-04  4.1584e-05  1.2669e-03  1.2733e-02  3.2787e+02  0:02:36  311
    40  1.9094e-02  2.8981e-04  3.2775e-04  1.4123e-04  3.8885e-05  1.2338e-03  1.2520e-02  3.2803e+02  0:03:06  310
    41  1.8273e-02  2.7529e-04  3.1071e-04  1.3303e-04  3.6516e-05  1.2007e-03  1.2361e-02  3.2817e+02  0:02:29  309
    42  1.7489e-02  2.6207e-04  2.9460e-04  1.2499e-04  3.4502e-05  1.1656e-03  1.2243e-02  3.2830e+02  0:03:00  308
    43  1.6766e-02  2.4963e-04  2.7998e-04  1.1797e-04  3.2764e-05  1.1289e-03  1.2109e-02  3.2842e+02  0:02:24  307
    44  1.6063e-02  2.3810e-04  2.6676e-04  1.1197e-04  3.1276e-05  1.0942e-03  1.1963e-02  3.2853e+02  0:02:56  306

  iter  continuity  x-velocity  y-velocity  z-velocity      energy           k     epsilon  outlet-tem     time/iter
    45  1.5456e-02  2.2771e-04  2.5479e-04  1.0619e-04  2.9981e-05  1.0632e-03  1.1808e-02  3.2862e+02  0:02:20  305
    46  1.4898e-02  2.1818e-04  2.4369e-04  1.0107e-04  2.8772e-05  1.0383e-03  1.1671e-02  3.2871e+02  0:02:53  304
    47  1.4380e-02  2.0960e-04  2.3342e-04  9.6690e-05  2.7685e-05  1.0145e-03  1.1520e-02  3.2878e+02  0:02:18  303
    48  1.3853e-02  2.0109e-04  2.2363e-04  9.2922e-05  2.6598e-05  9.9651e-04  1.1350e-02  3.2885e+02  0:02:50  302
    49  1.3314e-02  1.9337e-04  2.1472e-04  8.9571e-05  2.5560e-05  9.7450e-04  1.1107e-02  3.2890e+02  0:02:16  301
    50  1.2862e-02  1.8609e-04  2.0629e-04  8.6606e-05  2.4485e-05  9.4625e-04  1.0814e-02  3.2895e+02  0:02:48  300
    51  1.2445e-02  1.7896e-04  1.9801e-04  8.4028e-05  2.3318e-05  9.1189e-04  1.0482e-02  3.2899e+02  0:02:14  299
    52  1.2085e-02  1.7257e-04  1.9001e-04  8.1592e-05  2.1696e-05  8.7142e-04  1.0091e-02  3.2902e+02  0:02:46  298
    53  1.1714e-02  1.6618e-04  1.8206e-04  7.9241e-05  2.0629e-05  8.2747e-04  9.6477e-03  3.2904e+02  0:02:13  297
    54  1.1317e-02  1.5966e-04  1.7423e-04  7.6946e-05  1.9158e-05  7.8070e-04  9.1750e-03  3.2906e+02  0:02:45  296
    55  1.0929e-02  1.5348e-04  1.6673e-04  7.4335e-05  1.8105e-05  7.3506e-04  8.6783e-03  3.2908e+02  0:02:12  295

  iter  continuity  x-velocity  y-velocity  z-velocity      energy           k     epsilon  outlet-tem     time/iter
    56  1.0555e-02  1.4733e-04  1.5930e-04  7.1549e-05  1.7122e-05  6.9193e-04  8.1740e-03  3.2908e+02  0:02:44  294
    57  1.0174e-02  1.4134e-04  1.5229e-04  6.8677e-05  1.6228e-05  6.5202e-04  7.6644e-03  3.2909e+02  0:02:11  293
    58  9.7959e-03  1.3574e-04  1.4582e-04  6.5616e-05  1.5464e-05  6.1617e-04  7.1735e-03  3.2909e+02  0:03:41  292
    59  9.4340e-03  1.3042e-04  1.4001e-04  6.2496e-05  1.4908e-05  5.8620e-04  6.7448e-03  3.2909e+02  0:02:56  291
    60  9.0780e-03  1.2525e-04  1.3475e-04  5.9586e-05  1.4500e-05  5.5872e-04  6.3552e-03  3.2909e+02  0:03:18  290
    61  8.7491e-03  1.2061e-04  1.3043e-04  5.6646e-05  1.3997e-05  5.3563e-04  6.0240e-03  3.2908e+02  0:03:36  289
    62  8.4516e-03  1.1634e-04  1.2653e-04  5.3964e-05  1.3922e-05  5.1741e-04  5.7583e-03  3.2908e+02  0:02:52  288
    63  8.1700e-03  1.1225e-04  1.2300e-04  5.1794e-05  1.3916e-05  5.0332e-04  5.5380e-03  3.2908e+02  0:03:15  287
    64  7.9167e-03  1.0872e-04  1.2005e-04  4.9779e-05  1.3691e-05  4.9337e-04  5.3526e-03  3.2907e+02  0:02:35  286
    65  7.6955e-03  1.0543e-04  1.1725e-04  4.8098e-05  1.3550e-05  4.8612e-04  5.2104e-03  3.2907e+02  0:03:01  285
    66  7.4851e-03  1.0235e-04  1.1456e-04  4.6845e-05  1.3476e-05  4.8086e-04  5.1010e-03  3.2906e+02  0:02:24  284

  iter  continuity  x-velocity  y-velocity  z-velocity      energy           k     epsilon  outlet-tem     time/iter
    67  7.3095e-03  9.9609e-05  1.1204e-04  4.5920e-05  1.3412e-05  4.7545e-04  5.0010e-03  3.2906e+02  0:02:51  283
    68  7.1607e-03  9.7214e-05  1.0971e-04  4.5038e-05  1.3336e-05  4.6960e-04  4.9068e-03  3.2905e+02  0:02:17  282
    69  7.0276e-03  9.4935e-05  1.0738e-04  4.4497e-05  1.3417e-05  4.6263e-04  4.8192e-03  3.2905e+02  0:02:45  281
    70  6.9171e-03  9.3077e-05  1.0521e-04  4.3973e-05  1.3310e-05  4.5856e-04  4.7594e-03  3.2905e+02  0:02:12  280
    71  6.7884e-03  9.1092e-05  1.0286e-04  4.3742e-05  1.3141e-05  4.5303e-04  4.6994e-03  3.2905e+02  0:02:41  279
    72  6.6850e-03  8.9558e-05  1.0083e-04  4.3435e-05  1.2971e-05  4.4746e-04  4.6485e-03  3.2905e+02  0:02:08  278
    73  6.5915e-03  8.7960e-05  9.8626e-05  4.3268e-05  1.2814e-05  4.4182e-04  4.6084e-03  3.2905e+02  0:02:38  277
    74  6.4998e-03  8.6529e-05  9.6591e-05  4.3202e-05  1.2817e-05  4.3575e-04  4.5572e-03  3.2905e+02  0:02:06  276
    75  6.4164e-03  8.5202e-05  9.4682e-05  4.3062e-05  1.2594e-05  4.2935e-04  4.4891e-03  3.2905e+02  0:02:35  275
    76  6.3393e-03  8.3886e-05  9.2770e-05  4.2829e-05  1.2360e-05  4.2388e-04  4.4111e-03  3.2906e+02  0:02:04  274
    77  6.2634e-03  8.2501e-05  9.0943e-05  4.2575e-05  1.2101e-05  4.1712e-04  4.3227e-03  3.2906e+02  0:02:33  273

  iter  continuity  x-velocity  y-velocity  z-velocity      energy           k     epsilon  outlet-tem     time/iter
    78  6.1970e-03  8.1210e-05  8.9286e-05  4.2176e-05  1.1861e-05  4.1144e-04  4.2340e-03  3.2907e+02  0:02:56  272
    79  6.1172e-03  7.9757e-05  8.7454e-05  4.1751e-05  1.1608e-05  4.0477e-04  4.1452e-03  3.2907e+02  0:02:21  271
    80  6.0274e-03  7.8413e-05  8.5912e-05  4.1200e-05  1.1349e-05  3.9863e-04  4.0616e-03  3.2908e+02  0:02:46  270
    81  5.9390e-03  7.7090e-05  8.4379e-05  4.0585e-05  1.1098e-05  3.9323e-04  3.9932e-03  3.2908e+02  0:02:12  269
    82  5.8400e-03  7.5737e-05  8.2856e-05  3.9945e-05  1.0849e-05  3.8871e-04  3.9339e-03  3.2909e+02  0:02:39  268
    83  5.7450e-03  7.4363e-05  8.1407e-05  3.9322e-05  1.0594e-05  3.8266e-04  3.8679e-03  3.2909e+02  0:02:07  267
    84  5.6527e-03  7.3098e-05  8.0084e-05  3.8612e-05  1.0351e-05  3.7694e-04  3.8014e-03  3.2910e+02  0:02:34  266
    85  5.5615e-03  7.1790e-05  7.8699e-05  3.7952e-05  1.0110e-05  3.7211e-04  3.7365e-03  3.2910e+02  0:02:03  265
    86  5.4660e-03  7.0547e-05  7.7431e-05  3.7270e-05  9.8854e-06  3.6650e-04  3.6704e-03  3.2911e+02  0:02:31  264
    87  5.3656e-03  6.9295e-05  7.6193e-05  3.6594e-05  9.6637e-06  3.6037e-04  3.6020e-03  3.2911e+02  0:02:00  263
    88  5.2710e-03  6.8090e-05  7.5024e-05  3.5931e-05  9.4555e-06  3.5409e-04  3.5351e-03  3.2911e+02  0:02:28  262

  iter  continuity  x-velocity  y-velocity  z-velocity      energy           k     epsilon  outlet-tem     time/iter
    89  5.1768e-03  6.6913e-05  7.3830e-05  3.5282e-05  9.2607e-06  3.4831e-04  3.4727e-03  3.2912e+02  0:01:58  261
    90  5.0854e-03  6.5765e-05  7.2674e-05  3.4658e-05  9.0729e-06  3.4155e-04  3.4060e-03  3.2912e+02  0:02:26  260
    91  4.9925e-03  6.4697e-05  7.1568e-05  3.4019e-05  8.8880e-06  3.3406e-04  3.3348e-03  3.2913e+02  0:01:56  259
    92  4.9059e-03  6.3655e-05  7.0448e-05  3.3410e-05  8.6969e-06  3.2654e-04  3.2639e-03  3.2913e+02  0:02:24  258
    93  4.8272e-03  6.2674e-05  6.9379e-05  3.2801e-05  8.5257e-06  3.2023e-04  3.2034e-03  3.2914e+02  0:02:46  257
    94  4.7424e-03  6.1618e-05  6.8250e-05  3.2269e-05  8.3490e-06  3.1338e-04  3.1447e-03  3.2914e+02  0:02:13  256
    95  4.6629e-03  6.0694e-05  6.7252e-05  3.1692e-05  8.1798e-06  3.0737e-04  3.0947e-03  3.2914e+02  0:02:37  255
    96  4.5872e-03  5.9730e-05  6.6144e-05  3.1173e-05  8.0156e-06  3.0045e-04  3.0488e-03  3.2915e+02  0:02:05  254
    97  4.5148e-03  5.8819e-05  6.5107e-05  3.0643e-05  7.8605e-06  2.9409e-04  3.0107e-03  3.2915e+02  0:02:30  253
    98  4.4419e-03  5.7878e-05  6.4019e-05  3.0149e-05  7.7184e-06  2.8789e-04  2.9776e-03  3.2916e+02  0:02:00  252
    99  4.3733e-03  5.6966e-05  6.2961e-05  2.9682e-05  7.5741e-06  2.8193e-04  2.9452e-03  3.2916e+02  0:02:26  251

  iter  continuity  x-velocity  y-velocity  z-velocity      energy           k     epsilon  outlet-tem     time/iter
   100  4.3107e-03  5.6092e-05  6.1897e-05  2.9197e-05  7.4302e-06  2.7650e-04  2.9153e-03  3.2917e+02  0:01:56  250
   101  4.2510e-03  5.5223e-05  6.0811e-05  2.8711e-05  7.2948e-06  2.7156e-04  2.8927e-03  3.2917e+02  0:02:22  249
   102  4.1900e-03  5.4336e-05  5.9710e-05  2.8235e-05  7.1681e-06  2.6686e-04  2.8722e-03  3.2918e+02  0:01:53  248
   103  4.1262e-03  5.3438e-05  5.8586e-05  2.7766e-05  7.0372e-06  2.6205e-04  2.8527e-03  3.2918e+02  0:02:20  247
   104  4.0653e-03  5.2581e-05  5.7524e-05  2.7250e-05  6.9109e-06  2.5731e-04  2.8334e-03  3.2919e+02  0:01:51  246
   105  4.0037e-03  5.1709e-05  5.6444e-05  2.6765e-05  6.7930e-06  2.5294e-04  2.8144e-03  3.2920e+02  0:02:18  245
   106  3.9391e-03  5.0842e-05  5.5383e-05  2.6307e-05  6.6758e-06  2.4858e-04  2.7940e-03  3.2920e+02  0:01:50  244
   107  3.8750e-03  4.9998e-05  5.4366e-05  2.5819e-05  6.5625e-06  2.4438e-04  2.7714e-03  3.2921e+02  0:01:27  243
   108  3.8151e-03  4.9134e-05  5.3322e-05  2.5330e-05  6.4494e-06  2.4038e-04  2.7499e-03  3.2922e+02  0:01:58  242
   109  3.7549e-03  4.8294e-05  5.2325e-05  2.4823e-05  6.3321e-06  2.3625e-04  2.7281e-03  3.2922e+02  0:01:34  241
   110  3.6951e-03  4.7449e-05  5.1350e-05  2.4299e-05  6.2164e-06  2.3249e-04  2.7042e-03  3.2923e+02  0:02:03  240

  iter  continuity  x-velocity  y-velocity  z-velocity      energy           k     epsilon  outlet-tem     time/iter
   111  3.6334e-03  4.6585e-05  5.0383e-05  2.3778e-05  6.1121e-06  2.2921e-04  2.6765e-03  3.2924e+02  0:01:38  239
   112  3.5681e-03  4.5726e-05  4.9443e-05  2.3273e-05  6.0080e-06  2.2556e-04  2.6446e-03  3.2924e+02  0:02:06  238
   113  3.5073e-03  4.4910e-05  4.8570e-05  2.2723e-05  5.9018e-06  2.2225e-04  2.6107e-03  3.2925e+02  0:01:40  237
   114  3.4451e-03  4.4063e-05  4.7679e-05  2.2198e-05  5.7965e-06  2.1896e-04  2.5846e-03  3.2926e+02  0:01:20  236
   115  3.3843e-03  4.3247e-05  4.6845e-05  2.1679e-05  5.6873e-06  2.1559e-04  2.5609e-03  3.2926e+02  0:01:50  235
   116  3.3279e-03  4.2461e-05  4.6034e-05  2.1157e-05  5.5852e-06  2.1277e-04  2.5370e-03  3.2927e+02  0:01:28  234
   117  3.2717e-03  4.1669e-05  4.5222e-05  2.0680e-05  5.4853e-06  2.0992e-04  2.5149e-03  3.2928e+02  0:01:10  233
   118  3.2187e-03  4.0924e-05  4.4473e-05  2.0203e-05  5.3879e-06  2.0724e-04  2.4936e-03  3.2928e+02  0:01:42  232
   119  3.1655e-03  4.0181e-05  4.3727e-05  1.9751e-05  5.2959e-06  2.0456e-04  2.4726e-03  3.2929e+02  0:01:21  231
   120  3.1122e-03  3.9463e-05  4.3011e-05  1.9312e-05  5.2132e-06  2.0196e-04  2.4500e-03  3.2930e+02  0:01:51  230
   121  3.0568e-03  3.8742e-05  4.2289e-05  1.8904e-05  5.1310e-06  1.9929e-04  2.4266e-03  3.2930e+02  0:01:28  229

  iter  continuity  x-velocity  y-velocity  z-velocity      energy           k     epsilon  outlet-tem     time/iter
   122  3.0034e-03  3.8073e-05  4.1629e-05  1.8496e-05  5.0526e-06  1.9678e-04  2.4029e-03  3.2931e+02  0:01:56  228
   123  2.9519e-03  3.7404e-05  4.0956e-05  1.8109e-05  4.9787e-06  1.9440e-04  2.3778e-03  3.2931e+02  0:01:32  227
   124  2.9032e-03  3.6757e-05  4.0314e-05  1.7747e-05  4.9060e-06  1.9193e-04  2.3503e-03  3.2932e+02  0:01:59  226
   125  2.8550e-03  3.6132e-05  3.9697e-05  1.7403e-05  4.8360e-06  1.8930e-04  2.3217e-03  3.2932e+02  0:01:35  225
   126  2.8088e-03  3.5546e-05  3.9106e-05  1.7062e-05  4.7731e-06  1.8698e-04  2.2921e-03  3.2933e+02  0:01:15  224
   127  2.7635e-03  3.4942e-05  3.8500e-05  1.6764e-05  4.7083e-06  1.8456e-04  2.2627e-03  3.2933e+02  0:01:45  223
   128  2.7206e-03  3.4394e-05  3.7955e-05  1.6451e-05  4.6472e-06  1.8223e-04  2.2318e-03  3.2934e+02  0:01:23  222
   129  2.6787e-03  3.3829e-05  3.7391e-05  1.6180e-05  4.5853e-06  1.7982e-04  2.2020e-03  3.2934e+02  0:01:51  221
   130  2.6398e-03  3.3326e-05  3.6882e-05  1.5905e-05  4.5257e-06  1.7755e-04  2.1740e-03  3.2934e+02  0:01:28  220
   131  2.6028e-03  3.2823e-05  3.6357e-05  1.5650e-05  4.4746e-06  1.7570e-04  2.1478e-03  3.2935e+02  0:01:10  219
   132  2.5652e-03  3.2303e-05  3.5824e-05  1.5449e-05  4.4168e-06  1.7360e-04  2.1226e-03  3.2935e+02  0:01:39  218

  iter  continuity  x-velocity  y-velocity  z-velocity      energy           k     epsilon  outlet-tem     time/iter
   133  2.5322e-03  3.1864e-05  3.5363e-05  1.5180e-05  4.3660e-06  1.7204e-04  2.0971e-03  3.2935e+02  0:01:19  217
   134  2.4990e-03  3.1368e-05  3.4838e-05  1.4974e-05  4.3148e-06  1.7020e-04  2.0721e-03  3.2936e+02  0:01:46  216
   135  2.4674e-03  3.0940e-05  3.4385e-05  1.4736e-05  4.2663e-06  1.6847e-04  2.0459e-03  3.2936e+02  0:01:25  215
   136  2.4359e-03  3.0495e-05  3.3906e-05  1.4532e-05  4.2144e-06  1.6645e-04  2.0217e-03  3.2936e+02  0:01:50  214
   137  2.4071e-03  3.0107e-05  3.3481e-05  1.4306e-05  4.1641e-06  1.6461e-04  2.0009e-03  3.2937e+02  0:01:28  213
   138  2.3772e-03  2.9696e-05  3.3035e-05  1.4105e-05  4.1150e-06  1.6315e-04  1.9844e-03  3.2937e+02  0:01:52  212
   139  2.3484e-03  2.9307e-05  3.2619e-05  1.3913e-05  4.0702e-06  1.6178e-04  1.9694e-03  3.2937e+02  0:02:12  211
   140  2.3187e-03  2.8923e-05  3.2211e-05  1.3733e-05  4.0257e-06  1.6034e-04  1.9544e-03  3.2937e+02  0:01:45  210
   141  2.2916e-03  2.8556e-05  3.1813e-05  1.3555e-05  3.9826e-06  1.5873e-04  1.9384e-03  3.2938e+02  0:02:05  209
   142  2.2644e-03  2.8190e-05  3.1415e-05  1.3383e-05  3.9380e-06  1.5713e-04  1.9233e-03  3.2938e+02  0:02:21  208
   143  2.2365e-03  2.7844e-05  3.1037e-05  1.3203e-05  3.9007e-06  1.5584e-04  1.9071e-03  3.2938e+02  0:01:52  207

  iter  continuity  x-velocity  y-velocity  z-velocity      energy           k     epsilon  outlet-tem     time/iter
   144  2.2087e-03  2.7466e-05  3.0638e-05  1.3062e-05  3.8575e-06  1.5420e-04  1.8916e-03  3.2938e+02  0:02:11  206
   145  2.1852e-03  2.7162e-05  3.0302e-05  1.2870e-05  3.8210e-06  1.5304e-04  1.8768e-03  3.2939e+02  0:01:44  205
   146  2.1597e-03  2.6794e-05  2.9901e-05  1.2724e-05  3.7844e-06  1.5179e-04  1.8630e-03  3.2939e+02  0:02:04  204
   147  2.1332e-03  2.6470e-05  2.9551e-05  1.2571e-05  3.7442e-06  1.5038e-04  1.8488e-03  3.2939e+02  0:01:38  203
   148  2.1095e-03  2.6149e-05  2.9199e-05  1.2412e-05  3.7100e-06  1.4916e-04  1.8334e-03  3.2939e+02  0:01:59  202
   149  2.0849e-03  2.5813e-05  2.8835e-05  1.2279e-05  3.6698e-06  1.4765e-04  1.8166e-03  3.2939e+02  0:02:15  201
   150  2.0635e-03  2.5539e-05  2.8529e-05  1.2113e-05  3.6366e-06  1.4652e-04  1.7990e-03  3.2940e+02  0:02:27  200
   151  2.0402e-03  2.5193e-05  2.8157e-05  1.1990e-05  3.5979e-06  1.4508e-04  1.7831e-03  3.2940e+02  0:01:57  199
   152  2.0192e-03  2.4933e-05  2.7882e-05  1.1830e-05  3.5627e-06  1.4387e-04  1.7666e-03  3.2940e+02  0:01:33  198
   153  1.9982e-03  2.4615e-05  2.7540e-05  1.1706e-05  3.5287e-06  1.4255e-04  1.7507e-03  3.2940e+02  0:01:54  197
   154  1.9763e-03  2.4336e-05  2.7238e-05  1.1573e-05  3.4947e-06  1.4128e-04  1.7346e-03  3.2940e+02  0:01:30  196

  iter  continuity  x-velocity  y-velocity  z-velocity      energy           k     epsilon  outlet-tem     time/iter
   155  1.9545e-03  2.4058e-05  2.6931e-05  1.1446e-05  3.4614e-06  1.4002e-04  1.7180e-03  3.2940e+02  0:01:12  195
   156  1.9332e-03  2.3780e-05  2.6625e-05  1.1326e-05  3.4266e-06  1.3856e-04  1.7001e-03  3.2940e+02  0:01:36  194
   157  1.9139e-03  2.3518e-05  2.6334e-05  1.1194e-05  3.3940e-06  1.3728e-04  1.6805e-03  3.2941e+02  0:01:16  193
   158  1.8936e-03  2.3241e-05  2.6027e-05  1.1082e-05  3.3609e-06  1.3596e-04  1.6607e-03  3.2941e+02  0:01:39  192
   159  1.8728e-03  2.2986e-05  2.5744e-05  1.0951e-05  3.3266e-06  1.3454e-04  1.6409e-03  3.2941e+02  0:01:19  191
   160  1.8533e-03  2.2738e-05  2.5465e-05  1.0821e-05  3.2944e-06  1.3328e-04  1.6229e-03  3.2941e+02  0:01:03  190
   161  1.8334e-03  2.2477e-05  2.5177e-05  1.0712e-05  3.2635e-06  1.3197e-04  1.6055e-03  3.2941e+02  0:01:28  189
   162  1.8125e-03  2.2230e-05  2.4907e-05  1.0599e-05  3.2329e-06  1.3079e-04  1.5881e-03  3.2941e+02  0:01:10  188
   163  1.7936e-03  2.1983e-05  2.4632e-05  1.0493e-05  3.2028e-06  1.2945e-04  1.5714e-03  3.2941e+02  0:01:33  187
   164  1.7760e-03  2.1743e-05  2.4368e-05  1.0384e-05  3.1733e-06  1.2815e-04  1.5551e-03  3.2941e+02  0:01:14  186
   165  1.7584e-03  2.1508e-05  2.4104e-05  1.0281e-05  3.1422e-06  1.2687e-04  1.5384e-03  3.2941e+02  0:00:59  185

  iter  continuity  x-velocity  y-velocity  z-velocity      energy           k     epsilon  outlet-tem     time/iter
   166  1.7424e-03  2.1280e-05  2.3846e-05  1.0169e-05  3.1118e-06  1.2570e-04  1.5216e-03  3.2942e+02  0:01:24  184
   167  1.7251e-03  2.1037e-05  2.3577e-05  1.0079e-05  3.0806e-06  1.2435e-04  1.5040e-03  3.2942e+02  0:01:07  183
   168  1.7078e-03  2.0818e-05  2.3331e-05  9.9657e-06  3.0496e-06  1.2306e-04  1.4863e-03  3.2942e+02  0:01:29  182
   169  1.6895e-03  2.0591e-05  2.3075e-05  9.8649e-06  3.0194e-06  1.2181e-04  1.4693e-03  3.2942e+02  0:01:11  181
   170  1.6722e-03  2.0366e-05  2.2824e-05  9.7745e-06  2.9888e-06  1.2073e-04  1.4528e-03  3.2942e+02  0:00:57  180
   171  1.6543e-03  2.0145e-05  2.2577e-05  9.6817e-06  2.9581e-06  1.1956e-04  1.4363e-03  3.2942e+02  0:01:21  179
   172  1.6372e-03  1.9927e-05  2.2332e-05  9.5792e-06  2.9241e-06  1.1819e-04  1.4200e-03  3.2942e+02  0:01:04  178
   173  1.6223e-03  1.9738e-05  2.2111e-05  9.4567e-06  2.8937e-06  1.1696e-04  1.4050e-03  3.2942e+02  0:00:51  177
   174  1.6053e-03  1.9510e-05  2.1858e-05  9.3517e-06  2.8629e-06  1.1566e-04  1.3909e-03  3.2942e+02  0:01:16  176
   175  1.5876e-03  1.9311e-05  2.1636e-05  9.2450e-06  2.8330e-06  1.1435e-04  1.3763e-03  3.2942e+02  0:01:00  175
   176  1.5715e-03  1.9109e-05  2.1407e-05  9.1463e-06  2.8050e-06  1.1340e-04  1.3629e-03  3.2942e+02  0:01:23  174

  iter  continuity  x-velocity  y-velocity  z-velocity      energy           k     epsilon  outlet-tem     time/iter
   177  1.5542e-03  1.8898e-05  2.1172e-05  9.0618e-06  2.7764e-06  1.1231e-04  1.3505e-03  3.2942e+02  0:01:06  173
   178  1.5375e-03  1.8702e-05  2.0953e-05  8.9613e-06  2.7475e-06  1.1117e-04  1.3384e-03  3.2942e+02  0:00:52  172
   179  1.5210e-03  1.8497e-05  2.0723e-05  8.8627e-06  2.7192e-06  1.1004e-04  1.3271e-03  3.2942e+02  0:01:16  171
   180  1.5040e-03  1.8300e-05  2.0499e-05  8.7651e-06  2.6901e-06  1.0896e-04  1.3149e-03  3.2942e+02  0:01:00  170
   181  1.4886e-03  1.8101e-05  2.0274e-05  8.6715e-06  2.6609e-06  1.0779e-04  1.3025e-03  3.2942e+02  0:01:22  169
   182  1.4728e-03  1.7904e-05  2.0053e-05  8.5788e-06  2.6333e-06  1.0662e-04  1.2896e-03  3.2942e+02  0:01:05  168
   183  1.4558e-03  1.7703e-05  1.9830e-05  8.4894e-06  2.6065e-06  1.0545e-04  1.2760e-03  3.2942e+02  0:01:25  167
   184  1.4407e-03  1.7508e-05  1.9612e-05  8.3972e-06  2.5789e-06  1.0429e-04  1.2622e-03  3.2942e+02  0:01:08  166
   185  1.4255e-03  1.7313e-05  1.9394e-05  8.3100e-06  2.5504e-06  1.0317e-04  1.2497e-03  3.2942e+02  0:01:27  165
   186  1.4117e-03  1.7124e-05  1.9184e-05  8.2221e-06  2.5229e-06  1.0202e-04  1.2377e-03  3.2943e+02  0:01:09  164
   187  1.3969e-03  1.6930e-05  1.8968e-05  8.1394e-06  2.4954e-06  1.0089e-04  1.2258e-03  3.2943e+02  0:00:55  163

  iter  continuity  x-velocity  y-velocity  z-velocity      energy           k     epsilon  outlet-tem     time/iter
   188  1.3823e-03  1.6746e-05  1.8763e-05  8.0504e-06  2.4685e-06  9.9810e-05  1.2138e-03  3.2943e+02  0:01:16  162
   189  1.3684e-03  1.6558e-05  1.8552e-05  7.9641e-06  2.4414e-06  9.8818e-05  1.2019e-03  3.2943e+02  0:01:00  161
   190  1.3542e-03  1.6376e-05  1.8346e-05  7.8765e-06  2.4162e-06  9.7761e-05  1.1887e-03  3.2943e+02  0:01:20  160
   191  1.3397e-03  1.6187e-05  1.8135e-05  7.8000e-06  2.3890e-06  9.6436e-05  1.1740e-03  3.2943e+02  0:01:04  159
   192  1.3259e-03  1.6021e-05  1.7940e-05  7.7025e-06  2.3610e-06  9.5221e-05  1.1594e-03  3.2943e+02  0:01:22  158
   193  1.3119e-03  1.5846e-05  1.7737e-05  7.6089e-06  2.3344e-06  9.4099e-05  1.1461e-03  3.2943e+02  0:01:05  157
   194  1.2966e-03  1.5663e-05  1.7530e-05  7.5195e-06  2.3084e-06  9.2999e-05  1.1327e-03  3.2943e+02  0:01:23  156
   195  1.2812e-03  1.5485e-05  1.7330e-05  7.4349e-06  2.2822e-06  9.1812e-05  1.1181e-03  3.2943e+02  0:01:06  155
   196  1.2660e-03  1.5313e-05  1.7134e-05  7.3460e-06  2.2558e-06  9.0696e-05  1.1031e-03  3.2943e+02  0:01:23  154
   197  1.2513e-03  1.5133e-05  1.6930e-05  7.2656e-06  2.2276e-06  8.9407e-05  1.0873e-03  3.2943e+02  0:01:37  153
   198  1.2375e-03  1.4970e-05  1.6740e-05  7.1731e-06  2.2010e-06  8.8241e-05  1.0719e-03  3.2943e+02  0:01:17  152

  iter  continuity  x-velocity  y-velocity  z-velocity      energy           k     epsilon  outlet-tem     time/iter
   199  1.2237e-03  1.4793e-05  1.6536e-05  7.0894e-06  2.1747e-06  8.7062e-05  1.0577e-03  3.2943e+02  0:01:31  151
   200  1.2092e-03  1.4623e-05  1.6343e-05  7.0103e-06  2.1481e-06  8.5921e-05  1.0438e-03  3.2943e+02  0:01:13  150
   201  1.1946e-03  1.4460e-05  1.6155e-05  6.9264e-06  2.1233e-06  8.4829e-05  1.0300e-03  3.2943e+02  0:01:27  149
   202  1.1797e-03  1.4282e-05  1.5957e-05  6.8602e-06  2.0957e-06  8.3541e-05  1.0162e-03  3.2943e+02  0:01:10  148
   203  1.1662e-03  1.4132e-05  1.5781e-05  6.7582e-06  2.0710e-06  8.2491e-05  1.0033e-03  3.2943e+02  0:01:25  147
   204  1.1518e-03  1.3948e-05  1.5574e-05  6.6895e-06  2.0444e-06  8.1349e-05  9.9066e-04  3.2943e+02  0:01:07  146
   205  1.1380e-03  1.3792e-05  1.5399e-05  6.5978e-06  2.0191e-06  8.0306e-05  9.7751e-04  3.2943e+02  0:01:22  145
   206  1.1245e-03  1.3615e-05  1.5201e-05  6.5235e-06  1.9900e-06  7.9075e-05  9.6418e-04  3.2943e+02  0:01:05  144
   207  1.1123e-03  1.3472e-05  1.5035e-05  6.4261e-06  1.9642e-06  7.8064e-05  9.5144e-04  3.2943e+02  0:01:21  143
   208  1.0989e-03  1.3293e-05  1.4836e-05  6.3518e-06  1.9360e-06  7.6874e-05  9.3906e-04  3.2943e+02  0:01:04  142
   209  1.0864e-03  1.3157e-05  1.4678e-05  6.2587e-06  1.9106e-06  7.5918e-05  9.2669e-04  3.2943e+02  0:01:19  141

  iter  continuity  x-velocity  y-velocity  z-velocity      energy           k     epsilon  outlet-tem     time/iter
   210  1.0729e-03  1.2982e-05  1.4482e-05  6.1849e-06  1.8838e-06  7.4778e-05  9.1419e-04  3.2943e+02  0:01:03  140
   211  1.0601e-03  1.2842e-05  1.4321e-05  6.0973e-06  1.8599e-06  7.3815e-05  9.0137e-04  3.2943e+02  0:01:18  139
   212  1.0462e-03  1.2667e-05  1.4128e-05  6.0405e-06  1.8326e-06  7.2586e-05  8.8802e-04  3.2943e+02  0:01:02  138
   213  1.0341e-03  1.2536e-05  1.3975e-05  5.9415e-06  1.8073e-06  7.1551e-05  8.7527e-04  3.2943e+02  0:01:16  137
   214  1.0207e-03  1.2368e-05  1.3789e-05  5.8621e-06  1.7833e-06  7.0588e-05  8.6353e-04  3.2943e+02  0:01:01  136
   215  1.0069e-03  1.2214e-05  1.3614e-05  5.7952e-06  1.7587e-06  6.9543e-05  8.5137e-04  3.2943e+02  0:00:48  135
   216  9.9403e-04  1.2068e-05  1.3444e-05  5.7161e-06  1.7336e-06  6.8470e-05  8.3858e-04  3.2943e+02  0:01:05  134
   217  9.8160e-04  1.1920e-05  1.3270e-05  5.6347e-06  1.7092e-06  6.7421e-05  8.2565e-04  3.2942e+02  0:00:52  133
   218  9.6884e-04  1.1770e-05  1.3096e-05  5.5562e-06  1.6852e-06  6.6422e-05  8.1300e-04  3.2942e+02  0:01:07  132
   219  9.5566e-04  1.1618e-05  1.2922e-05  5.4849e-06  1.6605e-06  6.5375e-05  8.0008e-04  3.2942e+02  0:00:54  131
   220  9.4293e-04  1.1474e-05  1.2757e-05  5.4057e-06  1.6363e-06  6.4375e-05  7.8719e-04  3.2942e+02  0:00:42  130

  iter  continuity  x-velocity  y-velocity  z-velocity      energy           k     epsilon  outlet-tem     time/iter
   221  9.3041e-04  1.1325e-05  1.2586e-05  5.3300e-06  1.6129e-06  6.3401e-05  7.7459e-04  3.2942e+02  0:01:00  129
   222  9.1754e-04  1.1176e-05  1.2415e-05  5.2590e-06  1.5885e-06  6.2416e-05  7.6259e-04  3.2942e+02  0:00:47  128
   223  9.0502e-04  1.1033e-05  1.2252e-05  5.1824e-06  1.5646e-06  6.1436e-05  7.5088e-04  3.2942e+02  0:01:03  127
   224  8.9271e-04  1.0889e-05  1.2086e-05  5.1081e-06  1.5395e-06  6.0387e-05  7.3921e-04  3.2942e+02  0:00:50  126
   225  8.8025e-04  1.0756e-05  1.1930e-05  5.0255e-06  1.5156e-06  5.9429e-05  7.2820e-04  3.2942e+02  0:00:40  125
   226  8.6827e-04  1.0610e-05  1.1763e-05  4.9511e-06  1.4931e-06  5.8570e-05  7.1806e-04  3.2942e+02  0:00:56  124
   227  8.5599e-04  1.0465e-05  1.1600e-05  4.8884e-06  1.4702e-06  5.7635e-05  7.0745e-04  3.2942e+02  0:00:45  123
   228  8.4426e-04  1.0333e-05  1.1446e-05  4.8122e-06  1.4476e-06  5.6703e-05  6.9646e-04  3.2942e+02  0:01:00  122
   229  8.3298e-04  1.0195e-05  1.1286e-05  4.7390e-06  1.4238e-06  5.5696e-05  6.8562e-04  3.2942e+02  0:00:47  121
   230  8.2221e-04  1.0070e-05  1.1140e-05  4.6577e-06  1.4018e-06  5.4826e-05  6.7562e-04  3.2942e+02  0:00:38  120
   231  8.1017e-04  9.9286e-06  1.0978e-05  4.5884e-06  1.3797e-06  5.3929e-05  6.6605e-04  3.2942e+02  0:00:54  119

  iter  continuity  x-velocity  y-velocity  z-velocity      energy           k     epsilon  outlet-tem     time/iter
   232  7.9870e-04  9.8004e-06  1.0834e-05  4.5158e-06  1.3572e-06  5.3025e-05  6.5664e-04  3.2942e+02  0:00:43  118
   233  7.8799e-04  9.6737e-06  1.0687e-05  4.4416e-06  1.3358e-06  5.2170e-05  6.4783e-04  3.2942e+02  0:00:57  117
   234  7.7667e-04  9.5389e-06  1.0534e-05  4.3744e-06  1.3145e-06  5.1314e-05  6.3924e-04  3.2942e+02  0:00:45  116
   235  7.6522e-04  9.4123e-06  1.0392e-05  4.3063e-06  1.2938e-06  5.0506e-05  6.3053e-04  3.2942e+02  0:00:59  115
   236  7.5396e-04  9.2823e-06  1.0244e-05  4.2421e-06  1.2730e-06  4.9662e-05  6.2134e-04  3.2942e+02  0:00:47  114
   237  7.4281e-04  9.1572e-06  1.0100e-05  4.1758e-06  1.2531e-06  4.8862e-05  6.1178e-04  3.2942e+02  0:01:00  113
   238  7.3146e-04  9.0272e-06  9.9529e-06  4.1167e-06  1.2334e-06  4.8018e-05  6.0169e-04  3.2942e+02  0:01:10  112
   239  7.2048e-04  8.9040e-06  9.8129e-06  4.0514e-06  1.2140e-06  4.7186e-05  5.9125e-04  3.2942e+02  0:00:55  111
   240  7.0985e-04  8.7784e-06  9.6702e-06  3.9880e-06  1.1947e-06  4.6375e-05  5.8088e-04  3.2942e+02  0:01:06  110
   241  6.9931e-04  8.6554e-06  9.5302e-06  3.9246e-06  1.1755e-06  4.5593e-05  5.7091e-04  3.2942e+02  0:00:52  109
   242  6.8884e-04  8.5334e-06  9.3914e-06  3.8618e-06  1.1553e-06  4.4765e-05  5.6136e-04  3.2942e+02  0:01:25  108

  iter  continuity  x-velocity  y-velocity  z-velocity      energy           k     epsilon  outlet-tem     time/iter
   243  6.7911e-04  8.4199e-06  9.2602e-06  3.7932e-06  1.1365e-06  4.4051e-05  5.5263e-04  3.2942e+02  0:01:07  107
   244  6.6876e-04  8.2931e-06  9.1180e-06  3.7363e-06  1.1180e-06  4.3329e-05  5.4400e-04  3.2942e+02  0:01:14  106
   245  6.5845e-04  8.1748e-06  8.9861e-06  3.6809e-06  1.0998e-06  4.2617e-05  5.3507e-04  3.2942e+02  0:00:59  105
   246  6.4863e-04  8.0577e-06  8.8535e-06  3.6202e-06  1.0816e-06  4.1889e-05  5.2591e-04  3.2942e+02  0:01:07  104
   247  6.3912e-04  7.9407e-06  8.7201e-06  3.5610e-06  1.0632e-06  4.1135e-05  5.1673e-04  3.2942e+02  0:01:14  103
   248  6.3016e-04  7.8274e-06  8.5905e-06  3.4991e-06  1.0443e-06  4.0333e-05  5.0764e-04  3.2942e+02  0:00:59  102
   249  6.2097e-04  7.7178e-06  8.4645e-06  3.4360e-06  1.0254e-06  3.9588e-05  4.9916e-04  3.2942e+02  0:01:07  101
   250  6.1127e-04  7.6049e-06  8.3363e-06  3.3782e-06  1.0069e-06  3.8874e-05  4.9134e-04  3.2942e+02  0:00:53  100
   251  6.0158e-04  7.4965e-06  8.2139e-06  3.3204e-06  9.8937e-07  3.8210e-05  4.8382e-04  3.2942e+02  0:01:02   99
!  251 solution is converged
Performance profile written to C:/Users/Dell/AppData/Local/Temp/_ALI-DESKTOP_2568/run-information.txt
Performance profile written to C:/Users/Dell/AppData/Local/Temp/_ALI-DESKTOP_2568/run-information.txt

number tracked = 204, escaped = 204

Writing "C:/Users/Dell/AppData/Local/Temp/_ALI-DESKTOP_2568/scene-lic-temp_scene.avz" ...
Done.

Writing "C:/Users/Dell/AppData/Local/Temp/_ALI-DESKTOP_2568/scene-lic-vel_scene.avz" ...
Done.

Writing "C:/Users/Dell/AppData/Local/Temp/_ALI-DESKTOP_2568/scene-vectors_scene.avz" ...
Done.

number tracked = 204, escaped = 204

number tracked = 204, escaped = 204

Writing "C:/Users/Dell/AppData/Local/Temp/_ALI-DESKTOP_2568/scene-pathlines-temp_scene.avz" ...
Done.

Writing "C:/Users/Dell/AppData/Local/Temp/_ALI-DESKTOP_2568/scene-vel-inlet-plane_scene.avz" ...
Done.

Writing "C:/Users/Dell/AppData/Local/Temp/_ALI-DESKTOP_2568/scene-temp-walls_scene.avz" ...
Done.

Writing "C:/Users/Dell/AppData/Local/Temp/_ALI-DESKTOP_2568/scene-temp-inlet-plane_scene.avz" ...
Done.

Writing to ALI-DESKTOP:"D:/HPC Workshop/Ansys Cases/parametric_mixer/parametric_ansys_project/Static_Mixer.cffdb\Static_Mixer-Solve\DP2\Static_Mixer.cas.h5" in NODE0 mode and compression level 1 ...
Grouping cells for Laplace smoothing ...
       22771 cells,     1 zone  ...
      119140 faces,     5 zones ...
       82247 nodes,     1 zone  ...
  Done.
Done.

Writing to ALI-DESKTOP:"D:/HPC Workshop/Ansys Cases/parametric_mixer/parametric_ansys_project/Static_Mixer.cffdb\Static_Mixer-Solve\DP2\Static_Mixer.dat.h5" in NODE0 mode and compression level 1 ...
  Writing results.
Done.
